
Version,
  9.1;                                    !- Version Identifier

Timestep,
  4;                                      !- Number of Timesteps per Hour

LifeCycleCost:Parameters,
  Life Cycle Cost Parameters,             !- Name
  EndOfYear,                              !- Discounting Convention
  ConstantDollar,                         !- Inflation Approach
  0.03,                                   !- Real Discount Rate
  ,                                       !- Nominal Discount Rate
  ,                                       !- Inflation
  ,                                       !- Base Date Month
  2011,                                   !- Base Date Year
  ,                                       !- Service Date Month
  2011,                                   !- Service Date Year
  25,                                     !- Length of Study Period in Years
  ,                                       !- Tax rate
  None;                                   !- Depreciation Method

LifeCycleCost:UsePriceEscalation,
  U.S. Avg  Commercial-Electricity,       !- LCC Price Escalation Name
  Electricity,                            !- Resource
  2011,                                   !- Escalation Start Year
  January,                                !- Escalation Start Month
  0.9838,                                 !- Year Escalation 1
  0.9730,                                 !- Year Escalation 2
  0.9632,                                 !- Year Escalation 3
  0.9611,                                 !- Year Escalation 4
  0.9571,                                 !- Year Escalation 5
  0.9553,                                 !- Year Escalation 6
  0.9539,                                 !- Year Escalation 7
  0.9521,                                 !- Year Escalation 8
  0.9546,                                 !- Year Escalation 9
  0.9550,                                 !- Year Escalation 10
  0.9553,                                 !- Year Escalation 11
  0.9564,                                 !- Year Escalation 12
  0.9575,                                 !- Year Escalation 13
  0.9596,                                 !- Year Escalation 14
  0.9618,                                 !- Year Escalation 15
  0.9614,                                 !- Year Escalation 16
  0.9618,                                 !- Year Escalation 17
  0.9618,                                 !- Year Escalation 18
  0.9593,                                 !- Year Escalation 19
  0.9589,                                 !- Year Escalation 20
  0.9607,                                 !- Year Escalation 21
  0.9625,                                 !- Year Escalation 22
  0.9650,                                 !- Year Escalation 23
  0.9708,                                 !- Year Escalation 24
  0.9751,                                 !- Year Escalation 25
  0.9762,                                 !- Year Escalation 26
  0.9766,                                 !- Year Escalation 27
  0.9766,                                 !- Year Escalation 28
  0.9769,                                 !- Year Escalation 29
  0.9773;                                 !- Year Escalation 30

LifeCycleCost:UsePriceEscalation,
  U.S. Avg  Commercial-Distillate Oil,    !- LCC Price Escalation Name
  FuelOil#1,                              !- Resource
  2011,                                   !- Escalation Start Year
  January,                                !- Escalation Start Month
  0.9714,                                 !- Year Escalation 1
  0.9730,                                 !- Year Escalation 2
  0.9942,                                 !- Year Escalation 3
  1.0164,                                 !- Year Escalation 4
  1.0541,                                 !- Year Escalation 5
  1.0928,                                 !- Year Escalation 6
  1.1267,                                 !- Year Escalation 7
  1.1580,                                 !- Year Escalation 8
  1.1792,                                 !- Year Escalation 9
  1.1967,                                 !- Year Escalation 10
  1.2200,                                 !- Year Escalation 11
  1.2333,                                 !- Year Escalation 12
  1.2566,                                 !- Year Escalation 13
  1.2709,                                 !- Year Escalation 14
  1.2826,                                 !- Year Escalation 15
  1.2985,                                 !- Year Escalation 16
  1.3102,                                 !- Year Escalation 17
  1.3250,                                 !- Year Escalation 18
  1.3261,                                 !- Year Escalation 19
  1.3282,                                 !- Year Escalation 20
  1.3324,                                 !- Year Escalation 21
  1.3356,                                 !- Year Escalation 22
  1.3431,                                 !- Year Escalation 23
  1.3510,                                 !- Year Escalation 24
  1.3568,                                 !- Year Escalation 25
  1.3606,                                 !- Year Escalation 26
  1.3637,                                 !- Year Escalation 27
  1.3674,                                 !- Year Escalation 28
  1.3706,                                 !- Year Escalation 29
  1.3743;                                 !- Year Escalation 30

LifeCycleCost:UsePriceEscalation,
  U.S. Avg  Commercial-Residual Oil,      !- LCC Price Escalation Name
  FuelOil#2,                              !- Resource
  2011,                                   !- Escalation Start Year
  January,                                !- Escalation Start Month
  0.8469,                                 !- Year Escalation 1
  0.8257,                                 !- Year Escalation 2
  0.8681,                                 !- Year Escalation 3
  0.8988,                                 !- Year Escalation 4
  0.9289,                                 !- Year Escalation 5
  0.9604,                                 !- Year Escalation 6
  0.9897,                                 !- Year Escalation 7
  1.0075,                                 !- Year Escalation 8
  1.0314,                                 !- Year Escalation 9
  1.0554,                                 !- Year Escalation 10
  1.0861,                                 !- Year Escalation 11
  1.1278,                                 !- Year Escalation 12
  1.1497,                                 !- Year Escalation 13
  1.1620,                                 !- Year Escalation 14
  1.1743,                                 !- Year Escalation 15
  1.1852,                                 !- Year Escalation 16
  1.1948,                                 !- Year Escalation 17
  1.2037,                                 !- Year Escalation 18
  1.2071,                                 !- Year Escalation 19
  1.2119,                                 !- Year Escalation 20
  1.2139,                                 !- Year Escalation 21
  1.2194,                                 !- Year Escalation 22
  1.2276,                                 !- Year Escalation 23
  1.2365,                                 !- Year Escalation 24
  1.2420,                                 !- Year Escalation 25
  1.2461,                                 !- Year Escalation 26
  1.2509,                                 !- Year Escalation 27
  1.2550,                                 !- Year Escalation 28
  1.2591,                                 !- Year Escalation 29
  1.2638;                                 !- Year Escalation 30

LifeCycleCost:UsePriceEscalation,
  U.S. Avg  Commercial-Natural gas,       !- LCC Price Escalation Name
  NaturalGas,                             !- Resource
  2011,                                   !- Escalation Start Year
  January,                                !- Escalation Start Month
  0.9823,                                 !- Year Escalation 1
  0.9557,                                 !- Year Escalation 2
  0.9279,                                 !- Year Escalation 3
  0.9257,                                 !- Year Escalation 4
  0.9346,                                 !- Year Escalation 5
  0.9412,                                 !- Year Escalation 6
  0.9512,                                 !- Year Escalation 7
  0.9645,                                 !- Year Escalation 8
  0.9856,                                 !- Year Escalation 9
  1.0067,                                 !- Year Escalation 10
  1.0222,                                 !- Year Escalation 11
  1.0410,                                 !- Year Escalation 12
  1.0610,                                 !- Year Escalation 13
  1.0787,                                 !- Year Escalation 14
  1.0942,                                 !- Year Escalation 15
  1.1098,                                 !- Year Escalation 16
  1.1220,                                 !- Year Escalation 17
  1.1308,                                 !- Year Escalation 18
  1.1386,                                 !- Year Escalation 19
  1.1486,                                 !- Year Escalation 20
  1.1619,                                 !- Year Escalation 21
  1.1763,                                 !- Year Escalation 22
  1.1918,                                 !- Year Escalation 23
  1.2118,                                 !- Year Escalation 24
  1.2284,                                 !- Year Escalation 25
  1.2439,                                 !- Year Escalation 26
  1.2605,                                 !- Year Escalation 27
  1.2772,                                 !- Year Escalation 28
  1.2938,                                 !- Year Escalation 29
  1.3115;                                 !- Year Escalation 30

LifeCycleCost:UsePriceEscalation,
  U.S. Avg  Commercial-Coal,              !- LCC Price Escalation Name
  Coal,                                   !- Resource
  2011,                                   !- Escalation Start Year
  January,                                !- Escalation Start Month
  0.9970,                                 !- Year Escalation 1
  1.0089,                                 !- Year Escalation 2
  1.0089,                                 !- Year Escalation 3
  0.9941,                                 !- Year Escalation 4
  0.9941,                                 !- Year Escalation 5
  1.0000,                                 !- Year Escalation 6
  1.0030,                                 !- Year Escalation 7
  1.0059,                                 !- Year Escalation 8
  1.0089,                                 !- Year Escalation 9
  1.0119,                                 !- Year Escalation 10
  1.0148,                                 !- Year Escalation 11
  1.0178,                                 !- Year Escalation 12
  1.0208,                                 !- Year Escalation 13
  1.0267,                                 !- Year Escalation 14
  1.0297,                                 !- Year Escalation 15
  1.0356,                                 !- Year Escalation 16
  1.0415,                                 !- Year Escalation 17
  1.0534,                                 !- Year Escalation 18
  1.0564,                                 !- Year Escalation 19
  1.0593,                                 !- Year Escalation 20
  1.0653,                                 !- Year Escalation 21
  1.0712,                                 !- Year Escalation 22
  1.0742,                                 !- Year Escalation 23
  1.0801,                                 !- Year Escalation 24
  1.0831,                                 !- Year Escalation 25
  1.0831,                                 !- Year Escalation 26
  1.0861,                                 !- Year Escalation 27
  1.0890,                                 !- Year Escalation 28
  1.0920,                                 !- Year Escalation 29
  1.0950;                                 !- Year Escalation 30

Building,
  Restaurant 10,                          !- Name
  ,                                       !- North Axis {deg}
  City,                                   !- Terrain
  ,                                       !- Loads Convergence Tolerance Value
  ,                                       !- Temperature Convergence Tolerance Value {deltaC}
  ,                                       !- Solar Distribution
  ,                                       !- Maximum Number of Warmup Days
  ;                                       !- Minimum Number of Warmup Days

Shading:Building:Detailed,
  Shading Surface 1,                      !- Name
  ,                                       !- Transmittance Schedule Name
  ,                                       !- Number of Vertices
  297.056261441885, 149.644398386127, 0,  !- X,Y,Z Vertex 1 {m}
  298.784415390101, 2.25976099625825, 0,  !- X,Y,Z Vertex 2 {m}
  240.905817870437, -15.4722914596379, 0, !- X,Y,Z Vertex 3 {m}
  187.174122164642, 150.072459937964, 0,  !- X,Y,Z Vertex 4 {m}
  234.762814784932, 165.407121340216, 0,  !- X,Y,Z Vertex 5 {m}
  221.802545177534, 205.336808025705, 0,  !- X,Y,Z Vertex 6 {m}
  274.400054820893, 222.285790749593, 0;  !- X,Y,Z Vertex 7 {m}

Shading:Building:Detailed,
  Shading Surface 2,                      !- Name
  ,                                       !- Transmittance Schedule Name
  ,                                       !- Number of Vertices
  298.784415390101, 2.25976099625825, 12, !- X,Y,Z Vertex 1 {m}
  298.784415390101, 2.25976099625825, 0,  !- X,Y,Z Vertex 2 {m}
  297.056261441885, 149.644398386127, 0,  !- X,Y,Z Vertex 3 {m}
  297.056261441885, 149.644398386127, 12; !- X,Y,Z Vertex 4 {m}

Shading:Building:Detailed,
  Shading Surface 3,                      !- Name
  ,                                       !- Transmittance Schedule Name
  ,                                       !- Number of Vertices
  240.905817870437, -15.4722914596379, 12, !- X,Y,Z Vertex 1 {m}
  240.905817870437, -15.4722914596379, 0, !- X,Y,Z Vertex 2 {m}
  298.784415390101, 2.25976099625825, 0,  !- X,Y,Z Vertex 3 {m}
  298.784415390101, 2.25976099625825, 12; !- X,Y,Z Vertex 4 {m}

Shading:Building:Detailed,
  Shading Surface 4,                      !- Name
  ,                                       !- Transmittance Schedule Name
  ,                                       !- Number of Vertices
  187.174122164642, 150.072459937964, 12, !- X,Y,Z Vertex 1 {m}
  187.174122164642, 150.072459937964, 0,  !- X,Y,Z Vertex 2 {m}
  240.905817870437, -15.4722914596379, 0, !- X,Y,Z Vertex 3 {m}
  240.905817870437, -15.4722914596379, 12; !- X,Y,Z Vertex 4 {m}

Shading:Building:Detailed,
  Shading Surface 5,                      !- Name
  ,                                       !- Transmittance Schedule Name
  ,                                       !- Number of Vertices
  234.762814784932, 165.407121340216, 12, !- X,Y,Z Vertex 1 {m}
  234.762814784932, 165.407121340216, 0,  !- X,Y,Z Vertex 2 {m}
  187.174122164642, 150.072459937964, 0,  !- X,Y,Z Vertex 3 {m}
  187.174122164642, 150.072459937964, 12; !- X,Y,Z Vertex 4 {m}

Shading:Building:Detailed,
  Shading Surface 6,                      !- Name
  ,                                       !- Transmittance Schedule Name
  ,                                       !- Number of Vertices
  221.802545177534, 205.336808025705, 12, !- X,Y,Z Vertex 1 {m}
  221.802545177534, 205.336808025705, 0,  !- X,Y,Z Vertex 2 {m}
  234.762814784932, 165.407121340216, 0,  !- X,Y,Z Vertex 3 {m}
  234.762814784932, 165.407121340216, 12; !- X,Y,Z Vertex 4 {m}

Shading:Building:Detailed,
  Shading Surface 7,                      !- Name
  ,                                       !- Transmittance Schedule Name
  ,                                       !- Number of Vertices
  297.056261441885, 149.644398386127, 12, !- X,Y,Z Vertex 1 {m}
  297.056261441885, 149.644398386127, 0,  !- X,Y,Z Vertex 2 {m}
  274.400054820893, 222.285790749593, 0,  !- X,Y,Z Vertex 3 {m}
  274.400054820893, 222.285790749593, 12; !- X,Y,Z Vertex 4 {m}

Shading:Building:Detailed,
  Shading Surface 8,                      !- Name
  ,                                       !- Transmittance Schedule Name
  ,                                       !- Number of Vertices
  274.400054820893, 222.285790749593, 12, !- X,Y,Z Vertex 1 {m}
  221.802545177534, 205.336808025705, 12, !- X,Y,Z Vertex 2 {m}
  234.762814784932, 165.407121340216, 12, !- X,Y,Z Vertex 3 {m}
  187.174122164642, 150.072459937964, 12, !- X,Y,Z Vertex 4 {m}
  240.905817870437, -15.4722914596379, 12, !- X,Y,Z Vertex 5 {m}
  298.784415390101, 2.25976099625825, 12, !- X,Y,Z Vertex 6 {m}
  297.056261441885, 149.644398386127, 12; !- X,Y,Z Vertex 7 {m}

Shading:Building:Detailed,
  Shading Surface 9,                      !- Name
  ,                                       !- Transmittance Schedule Name
  ,                                       !- Number of Vertices
  274.400054820893, 222.285790749593, 12, !- X,Y,Z Vertex 1 {m}
  274.400054820893, 222.285790749593, 0,  !- X,Y,Z Vertex 2 {m}
  221.802545177534, 205.336808025705, 0,  !- X,Y,Z Vertex 3 {m}
  221.802545177534, 205.336808025705, 12; !- X,Y,Z Vertex 4 {m}

Shading:Building:Detailed,
  Shading Surface 10,                     !- Name
  ,                                       !- Transmittance Schedule Name
  ,                                       !- Number of Vertices
  125.598084034933, 27.0533875975225, 0,  !- X,Y,Z Vertex 1 {m}
  88.6071199038435, 14.9377928515177, 0,  !- X,Y,Z Vertex 2 {m}
  80.7291988999793, 38.8171710338135, 0,  !- X,Y,Z Vertex 3 {m}
  117.720048765037, 50.9326818649951, 0;  !- X,Y,Z Vertex 4 {m}

Shading:Building:Detailed,
  Shading Surface 11,                     !- Name
  ,                                       !- Transmittance Schedule Name
  ,                                       !- Number of Vertices
  88.6071199038435, 14.9377928515177, 9,  !- X,Y,Z Vertex 1 {m}
  88.6071199038435, 14.9377928515177, 0,  !- X,Y,Z Vertex 2 {m}
  125.598084034933, 27.0533875975225, 0,  !- X,Y,Z Vertex 3 {m}
  125.598084034933, 27.0533875975225, 9;  !- X,Y,Z Vertex 4 {m}

Shading:Building:Detailed,
  Shading Surface 12,                     !- Name
  ,                                       !- Transmittance Schedule Name
  ,                                       !- Number of Vertices
  80.7291988999793, 38.8171710338135, 9,  !- X,Y,Z Vertex 1 {m}
  80.7291988999793, 38.8171710338135, 0,  !- X,Y,Z Vertex 2 {m}
  88.6071199038435, 14.9377928515177, 0,  !- X,Y,Z Vertex 3 {m}
  88.6071199038435, 14.9377928515177, 9;  !- X,Y,Z Vertex 4 {m}

Shading:Building:Detailed,
  Shading Surface 13,                     !- Name
  ,                                       !- Transmittance Schedule Name
  ,                                       !- Number of Vertices
  117.720048765037, 50.9326818649951, 9,  !- X,Y,Z Vertex 1 {m}
  117.720048765037, 50.9326818649951, 0,  !- X,Y,Z Vertex 2 {m}
  80.7291988999793, 38.8171710338135, 0,  !- X,Y,Z Vertex 3 {m}
  80.7291988999793, 38.8171710338135, 9;  !- X,Y,Z Vertex 4 {m}

Shading:Building:Detailed,
  Shading Surface 14,                     !- Name
  ,                                       !- Transmittance Schedule Name
  ,                                       !- Number of Vertices
  125.598084034933, 27.0533875975225, 9,  !- X,Y,Z Vertex 1 {m}
  125.598084034933, 27.0533875975225, 0,  !- X,Y,Z Vertex 2 {m}
  117.720048765037, 50.9326818649951, 0,  !- X,Y,Z Vertex 3 {m}
  117.720048765037, 50.9326818649951, 9;  !- X,Y,Z Vertex 4 {m}

Shading:Building:Detailed,
  Shading Surface 15,                     !- Name
  ,                                       !- Transmittance Schedule Name
  ,                                       !- Number of Vertices
  117.720048765037, 50.9326818649951, 9,  !- X,Y,Z Vertex 1 {m}
  80.7291988999793, 38.8171710338135, 9,  !- X,Y,Z Vertex 2 {m}
  88.6071199038435, 14.9377928515177, 9,  !- X,Y,Z Vertex 3 {m}
  125.598084034933, 27.0533875975225, 9;  !- X,Y,Z Vertex 4 {m}

Shading:Building:Detailed,
  Shading Surface 28,                     !- Name
  ,                                       !- Transmittance Schedule Name
  ,                                       !- Number of Vertices
  90.4780001187745, 134.746785491063, 9,  !- X,Y,Z Vertex 1 {m}
  90.4780001187745, 134.746785491063, 0,  !- X,Y,Z Vertex 2 {m}
  82.6002095092011, 158.625749608676, 0,  !- X,Y,Z Vertex 3 {m}
  82.6002095092011, 158.625749608676, 9;  !- X,Y,Z Vertex 4 {m}

Shading:Building:Detailed,
  Shading Surface 29,                     !- Name
  ,                                       !- Transmittance Schedule Name
  ,                                       !- Number of Vertices
  52.4455657002869, 122.290295818331, 9,  !- X,Y,Z Vertex 1 {m}
  52.4455657002869, 122.290295818331, 0,  !- X,Y,Z Vertex 2 {m}
  90.4780001187745, 134.746785491063, 0,  !- X,Y,Z Vertex 3 {m}
  90.4780001187745, 134.746785491063, 9;  !- X,Y,Z Vertex 4 {m}

Shading:Building:Detailed,
  Shading Surface 30,                     !- Name
  ,                                       !- Transmittance Schedule Name
  ,                                       !- Number of Vertices
  90.4780001187745, 134.746785491063, 9,  !- X,Y,Z Vertex 1 {m}
  82.6002095092011, 158.625749608676, 9,  !- X,Y,Z Vertex 2 {m}
  44.5678925784311, 146.169346213648, 9,  !- X,Y,Z Vertex 3 {m}
  52.4455657002869, 122.290295818331, 9;  !- X,Y,Z Vertex 4 {m}

Shading:Building:Detailed,
  Shading Surface 31,                     !- Name
  ,                                       !- Transmittance Schedule Name
  ,                                       !- Number of Vertices
  52.4455657002869, 122.290295818331, 0,  !- X,Y,Z Vertex 1 {m}
  44.5678925784311, 146.169346213648, 0,  !- X,Y,Z Vertex 2 {m}
  82.6002095092011, 158.625749608676, 0,  !- X,Y,Z Vertex 3 {m}
  90.4780001187745, 134.746785491063, 0;  !- X,Y,Z Vertex 4 {m}

Shading:Building:Detailed,
  Shading Surface 32,                     !- Name
  ,                                       !- Transmittance Schedule Name
  ,                                       !- Number of Vertices
  82.6002095092011, 158.625749608676, 9,  !- X,Y,Z Vertex 1 {m}
  82.6002095092011, 158.625749608676, 0,  !- X,Y,Z Vertex 2 {m}
  44.5678925784311, 146.169346213648, 0,  !- X,Y,Z Vertex 3 {m}
  44.5678925784311, 146.169346213648, 9;  !- X,Y,Z Vertex 4 {m}

Shading:Building:Detailed,
  Shading Surface 33,                     !- Name
  ,                                       !- Transmittance Schedule Name
  ,                                       !- Number of Vertices
  44.5678925784311, 146.169346213648, 9,  !- X,Y,Z Vertex 1 {m}
  44.5678925784311, 146.169346213648, 0,  !- X,Y,Z Vertex 2 {m}
  52.4455657002869, 122.290295818331, 0,  !- X,Y,Z Vertex 3 {m}
  52.4455657002869, 122.290295818331, 9;  !- X,Y,Z Vertex 4 {m}

Shading:Building:Detailed,
  Shading Surface 16,                     !- Name
  ,                                       !- Transmittance Schedule Name
  ,                                       !- Number of Vertices
  136.573229941305, 31.3754125847444, 0,  !- X,Y,Z Vertex 1 {m}
  129.037685176512, 54.2164519777323, 0,  !- X,Y,Z Vertex 2 {m}
  161.339415000955, 64.7963868688033, 0,  !- X,Y,Z Vertex 3 {m}
  168.875055209584, 41.9554175755308, 0;  !- X,Y,Z Vertex 4 {m}

Shading:Building:Detailed,
  Shading Surface 17,                     !- Name
  ,                                       !- Transmittance Schedule Name
  ,                                       !- Number of Vertices
  129.037685176512, 54.2164519777323, 3,  !- X,Y,Z Vertex 1 {m}
  129.037685176512, 54.2164519777323, 0,  !- X,Y,Z Vertex 2 {m}
  136.573229941305, 31.3754125847444, 0,  !- X,Y,Z Vertex 3 {m}
  136.573229941305, 31.3754125847444, 3;  !- X,Y,Z Vertex 4 {m}

Shading:Building:Detailed,
  Shading Surface 18,                     !- Name
  ,                                       !- Transmittance Schedule Name
  ,                                       !- Number of Vertices
  161.339415000955, 64.7963868688033, 3,  !- X,Y,Z Vertex 1 {m}
  161.339415000955, 64.7963868688033, 0,  !- X,Y,Z Vertex 2 {m}
  129.037685176512, 54.2164519777323, 0,  !- X,Y,Z Vertex 3 {m}
  129.037685176512, 54.2164519777323, 3;  !- X,Y,Z Vertex 4 {m}

Shading:Building:Detailed,
  Shading Surface 19,                     !- Name
  ,                                       !- Transmittance Schedule Name
  ,                                       !- Number of Vertices
  168.875055209584, 41.9554175755308, 3,  !- X,Y,Z Vertex 1 {m}
  168.875055209584, 41.9554175755308, 0,  !- X,Y,Z Vertex 2 {m}
  161.339415000955, 64.7963868688033, 0,  !- X,Y,Z Vertex 3 {m}
  161.339415000955, 64.7963868688033, 3;  !- X,Y,Z Vertex 4 {m}

Shading:Building:Detailed,
  Shading Surface 20,                     !- Name
  ,                                       !- Transmittance Schedule Name
  ,                                       !- Number of Vertices
  136.573229941305, 31.3754125847444, 3,  !- X,Y,Z Vertex 1 {m}
  136.573229941305, 31.3754125847444, 0,  !- X,Y,Z Vertex 2 {m}
  168.875055209584, 41.9554175755308, 0,  !- X,Y,Z Vertex 3 {m}
  168.875055209584, 41.9554175755308, 3;  !- X,Y,Z Vertex 4 {m}

Shading:Building:Detailed,
  Shading Surface 21,                     !- Name
  ,                                       !- Transmittance Schedule Name
  ,                                       !- Number of Vertices
  168.875055209584, 41.9554175755308, 3,  !- X,Y,Z Vertex 1 {m}
  161.339415000955, 64.7963868688033, 3,  !- X,Y,Z Vertex 2 {m}
  129.037685176512, 54.2164519777323, 3,  !- X,Y,Z Vertex 3 {m}
  136.573229941305, 31.3754125847444, 3;  !- X,Y,Z Vertex 4 {m}

Shading:Building:Detailed,
  Shading Surface 22,                     !- Name
  ,                                       !- Transmittance Schedule Name
  ,                                       !- Number of Vertices
  154.424307369122, 85.8911099097872, 0,  !- X,Y,Z Vertex 1 {m}
  135.668527536903, 79.7479429162366, 0,  !- X,Y,Z Vertex 2 {m}
  119.912562205181, 127.506072991544, 0,  !- X,Y,Z Vertex 3 {m}
  138.668226163469, 133.649154885135, 0;  !- X,Y,Z Vertex 4 {m}

Shading:Building:Detailed,
  Shading Surface 23,                     !- Name
  ,                                       !- Transmittance Schedule Name
  ,                                       !- Number of Vertices
  135.668527536903, 79.7479429162366, 3,  !- X,Y,Z Vertex 1 {m}
  135.668527536903, 79.7479429162366, 0,  !- X,Y,Z Vertex 2 {m}
  154.424307369122, 85.8911099097872, 0,  !- X,Y,Z Vertex 3 {m}
  154.424307369122, 85.8911099097872, 3;  !- X,Y,Z Vertex 4 {m}

Shading:Building:Detailed,
  Shading Surface 24,                     !- Name
  ,                                       !- Transmittance Schedule Name
  ,                                       !- Number of Vertices
  119.912562205181, 127.506072991544, 3,  !- X,Y,Z Vertex 1 {m}
  119.912562205181, 127.506072991544, 0,  !- X,Y,Z Vertex 2 {m}
  135.668527536903, 79.7479429162366, 0,  !- X,Y,Z Vertex 3 {m}
  135.668527536903, 79.7479429162366, 3;  !- X,Y,Z Vertex 4 {m}

Shading:Building:Detailed,
  Shading Surface 25,                     !- Name
  ,                                       !- Transmittance Schedule Name
  ,                                       !- Number of Vertices
  138.668226163469, 133.649154885135, 3,  !- X,Y,Z Vertex 1 {m}
  138.668226163469, 133.649154885135, 0,  !- X,Y,Z Vertex 2 {m}
  119.912562205181, 127.506072991544, 0,  !- X,Y,Z Vertex 3 {m}
  119.912562205181, 127.506072991544, 3;  !- X,Y,Z Vertex 4 {m}

Shading:Building:Detailed,
  Shading Surface 26,                     !- Name
  ,                                       !- Transmittance Schedule Name
  ,                                       !- Number of Vertices
  154.424307369122, 85.8911099097872, 3,  !- X,Y,Z Vertex 1 {m}
  154.424307369122, 85.8911099097872, 0,  !- X,Y,Z Vertex 2 {m}
  138.668226163469, 133.649154885135, 0,  !- X,Y,Z Vertex 3 {m}
  138.668226163469, 133.649154885135, 3;  !- X,Y,Z Vertex 4 {m}

Shading:Building:Detailed,
  Shading Surface 27,                     !- Name
  ,                                       !- Transmittance Schedule Name
  ,                                       !- Number of Vertices
  138.668226163469, 133.649154885135, 3,  !- X,Y,Z Vertex 1 {m}
  119.912562205181, 127.506072991544, 3,  !- X,Y,Z Vertex 2 {m}
  135.668527536903, 79.7479429162366, 3,  !- X,Y,Z Vertex 3 {m}
  154.424307369122, 85.8911099097872, 3;  !- X,Y,Z Vertex 4 {m}

Zone,
  Building Story 1 ThermalZone,           !- Name
  ,                                       !- Direction of Relative North {deg}
  ,                                       !- X Origin {m}
  ,                                       !- Y Origin {m}
  ,                                       !- Z Origin {m}
  ,                                       !- Type
  ,                                       !- Multiplier
  ,                                       !- Ceiling Height {m}
  ,                                       !- Volume {m3}
  ,                                       !- Floor Area {m2}
  ,                                       !- Zone Inside Convection Algorithm
  ;                                       !- Zone Outside Convection Algorithm

BuildingSurface:Detailed,
  Surface 1,                              !- Name
  Floor,                                  !- Surface Type
  Typical Insulated Carpeted 8in Slab Floor, !- Construction Name
  Building Story 1 ThermalZone,           !- Zone Name
  Ground,                                 !- Outside Boundary Condition
  ,                                       !- Outside Boundary Condition Object
  NoSun,                                  !- Sun Exposure
  NoWind,                                 !- Wind Exposure
  ,                                       !- View Factor to Ground
  ,                                       !- Number of Vertices
  70.1928781497235, 8.67678882151651, 0,  !- X,Y,Z Vertex 1 {m}