
OS:Version,
  {3063cd0e-507b-40aa-8d75-8f436a4983b0}, !- Handle
  2.8.0;                                  !- Version Identifier

OS:Facility,
  {0dd1c16f-4213-4fff-83f4-f63efc1a530d}; !- Handle

OS:Site,
  {ab104a38-ca9a-462c-95ee-6dc5e3552237}, !- Handle
  Buffalo Niagara Intl Ap_NY_USA,         !- Name
  42.8132927350264,                       !- Latitude {deg}
  -78.8501565714965,                      !- Longitude {deg}
  -5,                                     !- Time Zone {hr}
  215,                                    !- Elevation {m}
  City;                                   !- Terrain

OS:SimulationControl,
  {be8614c2-491d-47e2-a3db-2514c8a496bc}, !- Handle
  ,                                       !- Do Zone Sizing Calculation
  ,                                       !- Do System Sizing Calculation
  ,                                       !- Do Plant Sizing Calculation
  Yes,                                    !- Run Simulation for Sizing Periods
  No;                                     !- Run Simulation for Weather File Run Periods

OS:Sizing:Parameters,
  {da826642-2a6f-4c44-815d-adc1bd85cb2a}, !- Handle
  1.25,                                   !- Heating Sizing Factor
  1.15;                                   !- Cooling Sizing Factor

OS:Timestep,
  {d8c81a95-599f-45e5-ab24-e86b6c47f9d3}, !- Handle
  1;                                      !- Number of Timesteps per Hour

OS:ShadowCalculation,
  {fa9c3985-b2de-40f3-9a21-83eefc10bf5c}, !- Handle
  20,                                     !- Calculation Frequency
  15000;                                  !- Maximum Figures in Shadow Overlap Calculations

OS:HeatBalanceAlgorithm,
  {fe8aadec-d7ab-43d0-811d-dca42bc2fada}, !- Handle
  ConductionTransferFunction,             !- Algorithm
  200;                                    !- Surface Temperature Upper Limit {C}

OS:RunPeriod,
  {08dc3347-80e4-4444-825a-0e29ea809e3a}, !- Handle
  Run Period 1,                           !- Name
  1,                                      !- Begin Month
  1,                                      !- Begin Day of Month
  12,                                     !- End Month
  31,                                     !- End Day of Month
  ,                                       !- Use Weather File Holidays and Special Days
  ,                                       !- Use Weather File Daylight Saving Period
  ,                                       !- Apply Weekend Holiday Rule
  ,                                       !- Use Weather File Rain Indicators
  ,                                       !- Use Weather File Snow Indicators
  ;                                       !- Number of Times Runperiod to be Repeated

OS:LifeCycleCost:Parameters,
  {6a35de28-6a35-47a0-88c0-6320ce885839}, !- Handle
  ,                                       !- Analysis Type
  ,                                       !- Discounting Convention
  ,                                       !- Inflation Approach
  ,                                       !- Real Discount Rate
  ,                                       !- Nominal Discount Rate
  ,                                       !- Inflation
  ,                                       !- Base Date Month
  ,                                       !- Base Date Year
  ,                                       !- Service Date Month
  ,                                       !- Service Date Year
  ;                                       !- Length of Study Period in Years

OS:YearDescription,
  {c9167164-d846-48a7-a21f-0f9cad5464aa}, !- Handle
  2018,                                   !- Calendar Year
  ,                                       !- Day of Week for Start Day
  ;                                       !- Is Leap Year

OS:WeatherFile,
  {36899b6f-74c7-4105-87d2-85c6046c267e}, !- Handle
  Buffalo Niagara Intl Ap,                !- City
  NY,                                     !- State Province Region
  USA,                                    !- Country
  TMY3,                                   !- Data Source
  725280,                                 !- WMO Number
  42.93,                                  !- Latitude {deg}
  -78.73,                                 !- Longitude {deg}
  -5,                                     !- Time Zone {hr}
  215,                                    !- Elevation {m}
  file:////Users/tkwasnik/github/urbanopt-example-geojson-reopt-project/weather/USA_NY_Buffalo-Greater.Buffalo.Intl.AP.725280_TMY3.epw, !- Url
  ;                                       !- Checksum

OS:Site:WaterMainsTemperature,
  {dce2c4e9-242b-41fb-a34c-0e2418a55a9d}, !- Handle
  Correlation,                            !- Calculation Method
  ,                                       !- Temperature Schedule Name
  8.96666666666667,                       !- Annual Average Outdoor Air Temperature {C}
  26.2;                                   !- Maximum Difference In Monthly Average Outdoor Air Temperatures {deltaC}

OS:SizingPeriod:DesignDay,
  {f2c1adb6-5b17-4241-ab45-2dd2be460999}, !- Handle
  Buffalo Niagara Intl Ap Ann Clg .4% Condns WB=>MDB, !- Name
  27.8,                                   !- Maximum Dry-Bulb Temperature {C}
  9.3,                                    !- Daily Dry-Bulb Temperature Range {deltaC}
  23.8,                                   !- Humidity Indicating Conditions at Maximum Dry-Bulb
  98769,                                  !- Barometric Pressure {Pa}
  5.7,                                    !- Wind Speed {m/s}
  240,                                    !- Wind Direction {deg}
  0,                                      !- Sky Clearness
  0,                                      !- Rain Indicator
  0,                                      !- Snow Indicator
  21,                                     !- Day of Month
  7,                                      !- Month
  SummerDesignDay,                        !- Day Type
  0,                                      !- Daylight Saving Time Indicator
  Wetbulb,                                !- Humidity Indicating Type
  ,                                       !- Humidity Indicating Day Schedule Name
  DefaultMultipliers,                     !- Dry-Bulb Temperature Range Modifier Type
  ,                                       !- Dry-Bulb Temperature Range Modifier Schedule Name
  ASHRAETau,                              !- Solar Model Indicator
  ,                                       !- Beam Solar Day Schedule Name
  ,                                       !- Diffuse Solar Day Schedule Name
  0.462,                                  !- ASHRAE Taub {dimensionless}
  2.001;                                  !- ASHRAE Taud {dimensionless}

OS:SizingPeriod:DesignDay,
  {7989c6d2-b608-4959-b8cf-8853f7ce0b18}, !- Handle
  Buffalo Niagara Intl Ap Ann Htg 99.6% Condns DB, !- Name
  -16.3,                                  !- Maximum Dry-Bulb Temperature {C}
  0,                                      !- Daily Dry-Bulb Temperature Range {deltaC}
  -16.3,                                  !- Humidity Indicating Conditions at Maximum Dry-Bulb
  98769,                                  !- Barometric Pressure {Pa}
  5.1,                                    !- Wind Speed {m/s}
  270,                                    !- Wind Direction {deg}
  0,                                      !- Sky Clearness
  0,                                      !- Rain Indicator
  0,                                      !- Snow Indicator
  21,                                     !- Day of Month
  1,                                      !- Month
  WinterDesignDay,                        !- Day Type
  0,                                      !- Daylight Saving Time Indicator
  Wetbulb,                                !- Humidity Indicating Type
  ,                                       !- Humidity Indicating Day Schedule Name
  DefaultMultipliers,                     !- Dry-Bulb Temperature Range Modifier Type
  ,                                       !- Dry-Bulb Temperature Range Modifier Schedule Name
  ASHRAEClearSky;                         !- Solar Model Indicator

OS:SizingPeriod:DesignDay,
  {eea71ca1-59b0-4d80-b9f4-7636c6f877cc}, !- Handle
  Buffalo Niagara Intl Ap Ann Clg .4% Condns DB=>MWB, !- Name
  30.3,                                   !- Maximum Dry-Bulb Temperature {C}
  9.3,                                    !- Daily Dry-Bulb Temperature Range {deltaC}
  21.8,                                   !- Humidity Indicating Conditions at Maximum Dry-Bulb
  98769,                                  !- Barometric Pressure {Pa}
  5.7,                                    !- Wind Speed {m/s}
  240,                                    !- Wind Direction {deg}
  0,                                      !- Sky Clearness
  0,                                      !- Rain Indicator
  0,                                      !- Snow Indicator
  21,                                     !- Day of Month
  7,                                      !- Month
  SummerDesignDay,                        !- Day Type
  0,                                      !- Daylight Saving Time Indicator
  Wetbulb,                                !- Humidity Indicating Type
  ,                                       !- Humidity Indicating Day Schedule Name
  DefaultMultipliers,                     !- Dry-Bulb Temperature Range Modifier Type
  ,                                       !- Dry-Bulb Temperature Range Modifier Schedule Name
  ASHRAETau,                              !- Solar Model Indicator
  ,                                       !- Beam Solar Day Schedule Name
  ,                                       !- Diffuse Solar Day Schedule Name
  0.462,                                  !- ASHRAE Taub {dimensionless}
  2.001;                                  !- ASHRAE Taud {dimensionless}

OS:ClimateZones,
  {5f3335d6-2bdd-4d97-b559-431b102f5b07}, !- Handle
  ,                                       !- Active Institution
  ,                                       !- Active Year
  ASHRAE,                                 !- Climate Zone Institution Name 1
  ANSI/ASHRAE Standard 169,               !- Climate Zone Document Name 1
  2006,                                   !- Climate Zone Document Year 1
  6A;                                     !- Climate Zone Value 1

OS:Node,
  {850efb89-56ce-4139-be28-b8a6ca1b4eea}, !- Handle
  Node 1,                                 !- Name
  {95ad6071-86a3-4752-bf0b-737f9489130c}, !- Inlet Port
  ;                                       !- Outlet Port

OS:Connection,
  {95ad6071-86a3-4752-bf0b-737f9489130c}, !- Handle
  {784fe044-4feb-4f0c-8e89-876cc0c92d40}, !- Name
  ,                                       !- Source Object
  11,                                     !- Outlet Port
  {850efb89-56ce-4139-be28-b8a6ca1b4eea}, !- Target Object
  2;                                      !- Inlet Port

OS:PortList,
  {d1f20767-c8f5-45f0-b80a-9647c3e40b1a}, !- Handle
  {4b7cf2ec-c5f9-43f6-8aad-c747a18a4775}, !- Name
  ;                                       !- HVAC Component

OS:PortList,
  {f158fd88-77a0-43ce-bf75-75b3850db9aa}, !- Handle
  {6061a754-20eb-475c-abbc-84d0112a32d8}, !- Name
  ;                                       !- HVAC Component

OS:PortList,
  {d459513f-377b-47dc-813a-a2b43e4fc035}, !- Handle
  {ec0f99b6-2927-4847-90e0-7840614c77e8}, !- Name
  ;                                       !- HVAC Component

OS:Node,
  {6190a0c0-0b25-47b2-b883-60cb54d024ed}, !- Handle
  Node 2,                                 !- Name
  {04e16f31-a5ba-420d-a504-6ba71352a98f}, !- Inlet Port
  ;                                       !- Outlet Port

OS:Connection,
  {04e16f31-a5ba-420d-a504-6ba71352a98f}, !- Handle
  {58bedb95-fab9-4dc3-abf2-1e8b51a66cff}, !- Name
  ,                                       !- Source Object
  11,                                     !- Outlet Port
  {6190a0c0-0b25-47b2-b883-60cb54d024ed}, !- Target Object
  2;                                      !- Inlet Port

OS:PortList,
  {b5baa639-8d91-451a-b234-5341850e4955}, !- Handle
  {7ff6c1f9-f4ca-4f44-bee7-e3b225f57a61}, !- Name
  ;                                       !- HVAC Component

OS:PortList,
  {bcee6ccc-9003-4502-8b07-10ab19648f23}, !- Handle
  {21610ed9-632e-4410-aaef-922339adc1ad}, !- Name
  ;                                       !- HVAC Component

OS:PortList,
  {17dcfd5d-9c24-416b-b299-a96872b4ab88}, !- Handle
  {bed23896-fb3a-44d9-806c-4d177163a598}, !- Name
  ;                                       !- HVAC Component

OS:Node,
  {fcce4774-a36d-4bf0-a23e-de76ebae95d3}, !- Handle
  Node 3,                                 !- Name
  {70226be4-4480-4aac-8922-7bf0ebf1dc8d}, !- Inlet Port
  ;                                       !- Outlet Port

OS:Connection,
  {70226be4-4480-4aac-8922-7bf0ebf1dc8d}, !- Handle
  {b0a818e3-ad10-4cbd-9708-51a9cbdb2f12}, !- Name
  ,                                       !- Source Object
  11,                                     !- Outlet Port
  {fcce4774-a36d-4bf0-a23e-de76ebae95d3}, !- Target Object
  2;                                      !- Inlet Port

OS:PortList,
  {e70fc041-c872-4812-b814-8d0cfef4a073}, !- Handle
  {d9f20c4e-8535-4efd-ad36-ced68f361695}, !- Name
  ;                                       !- HVAC Component

OS:PortList,
  {7c727dd4-b6d4-473c-83c9-8b099e4421a1}, !- Handle
  {8e80de32-c0b2-4081-a5fe-d9b03430866c}, !- Name
  ;                                       !- HVAC Component

OS:PortList,
  {efadf6d8-a7cd-441e-ae84-b05ca8bbda2a}, !- Handle
  {45f361a1-089f-4ca8-9ff2-b9763bd4f39b}, !- Name
  ;                                       !- HVAC Component

OS:Node,
  {9fcd5d64-d8e6-46d2-8137-59aba9e5350a}, !- Handle
  Node 4,                                 !- Name
  {72836a7c-3f84-4996-a1bf-bf4fcc1f5423}, !- Inlet Port
  ;                                       !- Outlet Port

OS:Connection,
  {72836a7c-3f84-4996-a1bf-bf4fcc1f5423}, !- Handle
  {2141cd59-1489-4dcc-8bef-c716ff16e548}, !- Name
  ,                                       !- Source Object
  11,                                     !- Outlet Port
  {9fcd5d64-d8e6-46d2-8137-59aba9e5350a}, !- Target Object
  2;                                      !- Inlet Port

OS:PortList,
  {3a266de2-4fe1-4638-b883-ae89971df7cf}, !- Handle
  {77bcf84b-77fc-41d5-8ed2-8d7f46623586}, !- Name
  ;                                       !- HVAC Component

OS:PortList,
  {7f86f19e-d5c8-46a7-8de6-d09cf36b4369}, !- Handle
  {bf51e508-6153-46a8-98de-e23689d0754e}, !- Name
  ;                                       !- HVAC Component

OS:PortList,
  {2950f00e-79c0-4cd4-873b-51b7efeaafd2}, !- Handle
  {5738eac8-1daa-49ce-be44-ebb22436b27a}, !- Name
  ;                                       !- HVAC Component

OS:Node,
  {b92b9318-4f45-4794-9369-62275450a9eb}, !- Handle
  Node 5,                                 !- Name
  {56237a9f-a5df-44ee-a764-7b6750b6d213}, !- Inlet Port
  ;                                       !- Outlet Port

OS:Connection,
  {56237a9f-a5df-44ee-a764-7b6750b6d213}, !- Handle
  {b390bd7b-ed20-4961-a7b0-84d8debbbf3d}, !- Name
  ,                                       !- Source Object
  11,                                     !- Outlet Port
  {b92b9318-4f45-4794-9369-62275450a9eb}, !- Target Object
  2;                                      !- Inlet Port

OS:PortList,
  {864e5a8c-0d40-49eb-a995-74aac791984a}, !- Handle
  {f6ac9765-8262-4518-9561-5a7de45122c4}, !- Name
  ;                                       !- HVAC Component

OS:PortList,
  {64f6058b-3221-4af4-94df-2033876bce91}, !- Handle
  {84418cf4-e09c-41c1-8ac8-ff60bd6366be}, !- Name
  ;                                       !- HVAC Component

OS:PortList,
  {c8667544-0b3c-4e2c-94a7-170701e10792}, !- Handle
  {b06a9e9e-d0f2-4b46-a5b8-145986a172da}, !- Name
  ;                                       !- HVAC Component

OS:Node,
  {03b4d598-429a-4d9a-8b76-3165df6175e8}, !- Handle
  Node 6,                                 !- Name
  {8a06eace-a442-4fab-be03-6c6ff330ee14}, !- Inlet Port
  ;                                       !- Outlet Port

OS:Connection,
  {8a06eace-a442-4fab-be03-6c6ff330ee14}, !- Handle
  {2ff6caac-f7c8-4434-aef9-76560c282db3}, !- Name
  ,                                       !- Source Object
  11,                                     !- Outlet Port
  {03b4d598-429a-4d9a-8b76-3165df6175e8}, !- Target Object
  2;                                      !- Inlet Port

OS:PortList,
  {fea44bfb-7209-4e7c-a810-3c7ab6a6a89b}, !- Handle
  {d08db42f-8d5c-4d23-a995-31c4ad0ca5b0}, !- Name
  ;                                       !- HVAC Component

OS:PortList,
  {b83ba40c-f3c0-4e85-9f69-030da0dfc557}, !- Handle
  {f81f73a6-e519-4dd9-a9d6-e189137cfe85}, !- Name
  ;                                       !- HVAC Component

OS:PortList,
  {b775dbe7-c3fb-440a-9a09-d678be43e3f6}, !- Handle
  {835ccead-6316-4495-baf2-994788d405d2}, !- Name
  ;                                       !- HVAC Component

OS:Node,
  {ac0f1458-7fdc-410f-aab1-1ee2312ff672}, !- Handle
  Node 7,                                 !- Name
  {309fc7b8-5bd4-46e9-9380-651eef836015}, !- Inlet Port
  ;                                       !- Outlet Port

OS:Connection,
  {309fc7b8-5bd4-46e9-9380-651eef836015}, !- Handle
  {bfc8589a-0726-4fd5-bac5-c004f0bccc2a}, !- Name
  ,                                       !- Source Object
  11,                                     !- Outlet Port
  {ac0f1458-7fdc-410f-aab1-1ee2312ff672}, !- Target Object
  2;                                      !- Inlet Port

OS:PortList,
  {1600f780-f3de-4083-8f3b-b87a85fe0170}, !- Handle
  {f3b54095-ae41-4a6a-a10f-6015f09f7142}, !- Name
  ;                                       !- HVAC Component

OS:PortList,
  {30425741-8f73-46c3-9401-24fd2f222ba3}, !- Handle
  {283ac7cf-9773-4067-a561-ea2ee76a1c60}, !- Name
  ;                                       !- HVAC Component

OS:PortList,
  {85f2d199-8edf-4cd2-a6ec-ba51950b89f6}, !- Handle
  {d972f51d-c11d-410e-a479-f02c0b17483b}, !- Name
  ;                                       !- HVAC Component

OS:Node,
  {8ea6de3b-f827-4f02-ba2f-d20edc19bae1}, !- Handle
  Node 8,                                 !- Name
  {0ae6c76e-2697-4785-a968-32b4c244f72b}, !- Inlet Port
  ;                                       !- Outlet Port

OS:Connection,
  {0ae6c76e-2697-4785-a968-32b4c244f72b}, !- Handle
  {53dff802-5381-4bb9-ab83-0150e8909074}, !- Name
  ,                                       !- Source Object
  11,                                     !- Outlet Port
  {8ea6de3b-f827-4f02-ba2f-d20edc19bae1}, !- Target Object
  2;                                      !- Inlet Port

OS:PortList,
  {bf8c9416-e094-4ba3-9041-fcde446cce30}, !- Handle
  {bb69b171-180c-4a8a-a9e7-566156a0418f}, !- Name
  ;                                       !- HVAC Component

OS:PortList,
  {245a47b4-bee2-4272-b5f9-bbbeb67704b7}, !- Handle
  {bba385cd-1535-407f-945c-3371418fbd16}, !- Name
  ;                                       !- HVAC Component

OS:PortList,
  {0b4e0e12-db3d-4241-a72a-2f8c2030008e}, !- Handle
  {e1027a61-2e05-4a71-9696-6f8dd5d4f24b}, !- Name
  ;                                       !- HVAC Component

OS:Node,
  {118b7014-a2d7-44c2-97ad-951f0f64ecf8}, !- Handle
  Node 9,                                 !- Name
  {4e3cef8f-fd63-4a1c-bfef-29800d1e68f2}, !- Inlet Port
  ;                                       !- Outlet Port

OS:Connection,
  {4e3cef8f-fd63-4a1c-bfef-29800d1e68f2}, !- Handle
  {b8f478a9-cf61-4bbd-ac19-2bbade649a33}, !- Name
  ,                                       !- Source Object
  11,                                     !- Outlet Port
  {118b7014-a2d7-44c2-97ad-951f0f64ecf8}, !- Target Object
  2;                                      !- Inlet Port

OS:PortList,
  {2905f1cf-dde9-45f8-861c-6448e05e73d2}, !- Handle
  {faf75ba6-35b6-46ed-92ca-eeda352d21b3}, !- Name
  ;                                       !- HVAC Component

OS:PortList,
  {f71cfd6b-0472-47b6-9e09-e7ec31aa5eb1}, !- Handle
  {269a8527-aa5d-47d6-b7c4-35cf9a984c43}, !- Name
  ;                                       !- HVAC Component

OS:PortList,
  {2ed27b56-ba79-408b-a202-feb02a1ef925}, !- Handle
  {eb82c306-d0df-4434-a2f1-ee568f49ea86}, !- Name
  ;                                       !- HVAC Component

OS:Node,
  {a0f13f0e-5f75-4d82-ae14-d88839f6f949}, !- Handle
  Node 10,                                !- Name
  {07e36187-b98a-4b89-bf9f-e577c70ff38a}, !- Inlet Port
  ;                                       !- Outlet Port

OS:Connection,
  {07e36187-b98a-4b89-bf9f-e577c70ff38a}, !- Handle
  {5cb3879c-e141-4d6b-9f29-ef5ad0c14537}, !- Name
  ,                                       !- Source Object
  11,                                     !- Outlet Port
  {a0f13f0e-5f75-4d82-ae14-d88839f6f949}, !- Target Object
  2;                                      !- Inlet Port

OS:PortList,
  {82917a01-ca35-4885-b8a1-8c9a061fbe7c}, !- Handle
  {9b4ea337-0ced-4043-b24b-a5ea8ef8bd0e}, !- Name
  ;                                       !- HVAC Component

OS:PortList,
  {38a30727-98c4-4634-8bfa-fb5cc23033ac}, !- Handle
  {4ebd3cdd-3fb9-4a7e-a6d1-d1b17a3582cc}, !- Name
  ;                                       !- HVAC Component

OS:PortList,
  {724bc44a-49e3-409f-bdf0-d7f3cd659991}, !- Handle
  {f551195a-d55f-4dba-950a-71c5963dbd2e}, !- Name
  ;                                       !- HVAC Component

OS:Node,
  {8687d838-5f65-4677-a48f-786fea447f0a}, !- Handle
  Node 11,                                !- Name
  {6091aa86-1545-4ea2-9c69-639e50c9b375}, !- Inlet Port
  ;                                       !- Outlet Port

OS:Connection,
  {6091aa86-1545-4ea2-9c69-639e50c9b375}, !- Handle
  {4dae3c03-fd91-49c3-84f4-bfd53d8b64ec}, !- Name
  ,                                       !- Source Object
  11,                                     !- Outlet Port
  {8687d838-5f65-4677-a48f-786fea447f0a}, !- Target Object
  2;                                      !- Inlet Port

OS:PortList,
  {39f36e57-f22b-4518-84fe-57611d80a7c6}, !- Handle
  {86a7ddaa-f235-4d44-ae9f-bb75a7fd2068}, !- Name
  ;                                       !- HVAC Component

OS:PortList,
  {37b59c22-d4b4-4ffc-9a78-5b15658ec506}, !- Handle
  {0b2e4684-dbfb-49b6-a396-14a2d6942b7f}, !- Name
  ;                                       !- HVAC Component

OS:PortList,
  {1f49d48f-e71f-46bf-bce5-42eb097c49fc}, !- Handle
  {9cfd8124-d7aa-4331-b5b1-5ae388e62a90}, !- Name
  ;                                       !- HVAC Component

OS:Node,
  {e4514c5c-ca42-4a5e-b6f9-30e9cf451e71}, !- Handle
  Node 12,                                !- Name
  {c4e24539-cfba-4539-b973-c149f0af257f}, !- Inlet Port
  ;                                       !- Outlet Port

OS:Connection,
  {c4e24539-cfba-4539-b973-c149f0af257f}, !- Handle
  {e6656046-ad93-4d9a-b007-419e87fce0e7}, !- Name
  ,                                       !- Source Object
  11,                                     !- Outlet Port
  {e4514c5c-ca42-4a5e-b6f9-30e9cf451e71}, !- Target Object
  2;                                      !- Inlet Port

OS:PortList,
  {81bc181d-8929-4486-9718-7a3fa584f7f9}, !- Handle
  {94d4756b-5d79-4372-9ff4-40a27eaaf3b0}, !- Name
  ;                                       !- HVAC Component

OS:PortList,
  {940dd43a-0857-472c-be35-566050a64b6a}, !- Handle
  {3f9b55de-1824-4ef2-88a3-4e6a36abd600}, !- Name
  ;                                       !- HVAC Component

OS:PortList,
  {bf982fd1-11c2-47be-b327-825cde4fe4e5}, !- Handle
  {4c3a0a5c-4f3a-461d-972b-7d8190330716}, !- Name
  ;                                       !- HVAC Component

OS:Node,
  {634acc7d-7c09-480c-942b-f0c005b64c59}, !- Handle
  Node 13,                                !- Name
  {10ea8479-a117-469d-ba58-6ebc9e0488c5}, !- Inlet Port
  ;                                       !- Outlet Port

OS:Connection,
  {10ea8479-a117-469d-ba58-6ebc9e0488c5}, !- Handle
  {bc180077-8126-48ac-a18d-4e58730ffaf5}, !- Name
  ,                                       !- Source Object
  11,                                     !- Outlet Port
  {634acc7d-7c09-480c-942b-f0c005b64c59}, !- Target Object
  2;                                      !- Inlet Port

OS:PortList,
  {e5e8f551-70ae-44f6-aa16-94695f5161d6}, !- Handle
  {def91720-bf20-464e-8961-2340ef11496e}, !- Name
  ;                                       !- HVAC Component

OS:PortList,
  {e270ac29-9830-43ea-9017-dbc2c75004ec}, !- Handle
  {3671983e-b046-4050-81c0-c1c5fb2379ef}, !- Name
  ;                                       !- HVAC Component

OS:PortList,
  {114b5209-088d-41da-a4d9-70a09d774d80}, !- Handle
  {4e0f3108-0a48-420e-83f8-913645646321}, !- Name
  ;                                       !- HVAC Component

OS:Node,
  {4df48858-e9e7-401f-bf6f-692dc9410dce}, !- Handle
  Node 14,                                !- Name
  {c26a21d5-6203-4703-b562-58c63ef61aab}, !- Inlet Port
  ;                                       !- Outlet Port

OS:Connection,
  {c26a21d5-6203-4703-b562-58c63ef61aab}, !- Handle
  {3d69b490-13a2-44d3-81ea-9dc04a5b1d92}, !- Name
  ,                                       !- Source Object
  11,                                     !- Outlet Port
  {4df48858-e9e7-401f-bf6f-692dc9410dce}, !- Target Object
  2;                                      !- Inlet Port

OS:PortList,
  {0459a7b2-d4eb-4b72-843a-259ca062343c}, !- Handle
  {0dc2e4c1-b83c-4b8c-803f-452f39772b11}, !- Name
  ;                                       !- HVAC Component

OS:PortList,
  {5a826618-9d90-42b1-bc89-ffff2aac84d3}, !- Handle
  {f52fe041-e9f1-4c7e-857e-587e41c8557c}, !- Name
  ;                                       !- HVAC Component

OS:PortList,
  {6eb37543-ac9f-448f-9796-096ad327c5ea}, !- Handle
  {589c89aa-6d47-4890-a5b8-56c903b2fa5c}, !- Name
  ;                                       !- HVAC Component

OS:Node,
  {408560d0-64e9-4798-9d8a-f822f829d7f6}, !- Handle
  Node 15,                                !- Name
  {5288508e-88f1-47cb-8137-375a3f5ffc24}, !- Inlet Port
  ;                                       !- Outlet Port

OS:Connection,
  {5288508e-88f1-47cb-8137-375a3f5ffc24}, !- Handle
  {0e544224-3434-4404-8b8d-b202ab458bd7}, !- Name
  ,                                       !- Source Object
  11,                                     !- Outlet Port
  {408560d0-64e9-4798-9d8a-f822f829d7f6}, !- Target Object
  2;                                      !- Inlet Port

OS:PortList,
  {ada4657f-d6a5-41a1-ac4e-4eac54fbf5cb}, !- Handle
  {08647025-1994-48bf-be40-4d559fe7f9ec}, !- Name
  ;                                       !- HVAC Component

OS:PortList,
  {8afbe2b3-bddc-4b30-9bbb-80768a42da52}, !- Handle
  {245bb859-ba10-4774-bc16-ce7e1d78e078}, !- Name
  ;                                       !- HVAC Component

OS:PortList,
  {ff5cf071-ff55-44e8-96f3-708b97474325}, !- Handle
  {68a0ce73-ece6-4a9d-b126-361eb7db821f}, !- Name
  ;                                       !- HVAC Component

OS:Node,
  {01f4a759-e1d3-4e0e-9025-64cdbef8f3d1}, !- Handle
  Node 16,                                !- Name
  {7785a978-6767-4c0c-a642-b2bfea34ba43}, !- Inlet Port
  ;                                       !- Outlet Port

OS:Connection,
  {7785a978-6767-4c0c-a642-b2bfea34ba43}, !- Handle
  {f6ac8c23-1c72-4e45-8fdc-c53e18a73e23}, !- Name
  ,                                       !- Source Object
  11,                                     !- Outlet Port
  {01f4a759-e1d3-4e0e-9025-64cdbef8f3d1}, !- Target Object
  2;                                      !- Inlet Port

OS:PortList,
  {7a9ac416-709c-42ac-9352-90f7fc8ddd7c}, !- Handle
  {886bcb94-f802-45b7-8716-63b17aaf7bfb}, !- Name
  ;                                       !- HVAC Component

OS:PortList,
  {84bcefa0-588f-4c9e-925e-855dfc46c395}, !- Handle
  {5f660f15-0d4c-453f-b0b0-5a7c57796bf9}, !- Name
  ;                                       !- HVAC Component

OS:PortList,
  {e8f102f1-3c07-4198-b789-fda77a6fb90b}, !- Handle
  {74f4fb72-890e-41f3-a1fc-2fe169bbccec}, !- Name
  ;                                       !- HVAC Component

OS:Node,
  {dfbe946f-d0d3-4478-a2f7-5ae0eb976000}, !- Handle
  Node 17,                                !- Name
  {88aedb8a-a081-4eed-94fb-6ad5790443c9}, !- Inlet Port
  ;                                       !- Outlet Port

OS:Connection,
  {88aedb8a-a081-4eed-94fb-6ad5790443c9}, !- Handle
  {fc157b3d-51d2-45dd-80d8-0e42f613ac3c}, !- Name
  ,                                       !- Source Object
  11,                                     !- Outlet Port
  {dfbe946f-d0d3-4478-a2f7-5ae0eb976000}, !- Target Object
  2;                                      !- Inlet Port

OS:PortList,
  {299a4760-f0db-4081-a1ab-1aff2ccf17cf}, !- Handle
  {5ff20f70-1fee-4b7f-81e8-5ef81a76c2f8}, !- Name
  ;                                       !- HVAC Component

OS:PortList,
  {ccb1fe5e-c336-4995-9752-682f77ad61e6}, !- Handle
  {d5da681f-1769-418f-a768-29d2d7c5bf7f}, !- Name
  ;                                       !- HVAC Component

OS:PortList,
  {7b555a4c-c970-4be7-87db-a53b119ecfeb}, !- Handle
  {3d76124a-88f0-43cf-a1b3-8f0fc09f2f38}, !- Name
  ;                                       !- HVAC Component

OS:Node,
  {fa8aae8f-54f6-4667-9f5f-ab69e131200e}, !- Handle
  Node 18,                                !- Name
  {ce1f88b4-4fd0-4571-8850-842019d4db62}, !- Inlet Port
  ;                                       !- Outlet Port

OS:Connection,
  {ce1f88b4-4fd0-4571-8850-842019d4db62}, !- Handle
  {ce06311d-522d-42db-9969-69dbd039d57c}, !- Name
  ,                                       !- Source Object
  11,                                     !- Outlet Port
  {fa8aae8f-54f6-4667-9f5f-ab69e131200e}, !- Target Object
  2;                                      !- Inlet Port

OS:PortList,
  {fdb89e78-c7b7-4157-b9ed-f658cb1a0981}, !- Handle
  {e1f88ca6-ab4c-47ae-b15b-c81dcdb38c23}, !- Name
  ;                                       !- HVAC Component

OS:PortList,
  {ede4d0f4-0e3e-4eaf-8613-988b155f09a4}, !- Handle
  {9cc17a6f-a1b3-4284-9361-6140223a58f9}, !- Name
  ;                                       !- HVAC Component

OS:PortList,