
OS:Version,
  {945bc4c5-0b2e-4abb-9206-3d9da5b32196}, !- Handle
  2.8.0;                                  !- Version Identifier

OS:Facility,
  {50d5622c-b9d1-4fff-87fd-bd0e3aa71c48}; !- Handle

OS:Site,
  {b0ddf81b-2fee-430e-915b-e04c10b660ae}, !- Handle
  Buffalo Niagara Intl Ap_NY_USA,         !- Name
  42.8180322642434,                       !- Latitude {deg}
  -78.850630729414,                       !- Longitude {deg}
  -5,                                     !- Time Zone {hr}
  215,                                    !- Elevation {m}
  City;                                   !- Terrain

OS:SimulationControl,
  {fa15240e-d105-4ac4-9ec3-d2f58ddbb021}, !- Handle
  ,                                       !- Do Zone Sizing Calculation
  ,                                       !- Do System Sizing Calculation
  ,                                       !- Do Plant Sizing Calculation
  Yes,                                    !- Run Simulation for Sizing Periods
  No;                                     !- Run Simulation for Weather File Run Periods

OS:Sizing:Parameters,
  {764ddf48-2ce0-449d-be28-aed55318cfc4}, !- Handle
  1.25,                                   !- Heating Sizing Factor
  1.15;                                   !- Cooling Sizing Factor

OS:Timestep,
  {23201803-965c-4f92-b066-5f4a63105f3c}, !- Handle
  1;                                      !- Number of Timesteps per Hour

OS:ShadowCalculation,
  {bd344294-debb-41a8-8ab1-f26f7361ee59}, !- Handle
  20,                                     !- Calculation Frequency
  15000;                                  !- Maximum Figures in Shadow Overlap Calculations

OS:HeatBalanceAlgorithm,
  {ca2ad091-6cf3-49ce-afa0-a6082f726334}, !- Handle
  ConductionTransferFunction,             !- Algorithm
  200;                                    !- Surface Temperature Upper Limit {C}

OS:RunPeriod,
  {ebc22eae-63d1-476f-a869-e674543cbe8c}, !- Handle
  Run Period 1,                           !- Name
  1,                                      !- Begin Month
  1,                                      !- Begin Day of Month
  12,                                     !- End Month
  31,                                     !- End Day of Month
  ,                                       !- Use Weather File Holidays and Special Days
  ,                                       !- Use Weather File Daylight Saving Period
  ,                                       !- Apply Weekend Holiday Rule
  ,                                       !- Use Weather File Rain Indicators
  ,                                       !- Use Weather File Snow Indicators
  ;                                       !- Number of Times Runperiod to be Repeated

OS:LifeCycleCost:Parameters,
  {1e3eaebf-703d-4902-8858-9459b628a595}, !- Handle
  ,                                       !- Analysis Type
  ,                                       !- Discounting Convention
  ,                                       !- Inflation Approach
  ,                                       !- Real Discount Rate
  ,                                       !- Nominal Discount Rate
  ,                                       !- Inflation
  ,                                       !- Base Date Month
  ,                                       !- Base Date Year
  ,                                       !- Service Date Month
  ,                                       !- Service Date Year
  ;                                       !- Length of Study Period in Years

OS:YearDescription,
  {1a188258-e221-416c-991f-e15ab811e9e6}, !- Handle
  2018,                                   !- Calendar Year
  ,                                       !- Day of Week for Start Day
  ;                                       !- Is Leap Year

OS:WeatherFile,
  {47193052-ead8-454b-8375-ec90ef4b268a}, !- Handle
  Buffalo Niagara Intl Ap,                !- City
  NY,                                     !- State Province Region
  USA,                                    !- Country
  TMY3,                                   !- Data Source
  725280,                                 !- WMO Number
  42.93,                                  !- Latitude {deg}
  -78.73,                                 !- Longitude {deg}
  -5,                                     !- Time Zone {hr}
  215,                                    !- Elevation {m}
  file:///Users/tkwasnik/github/urbanopt-example-geojson-reopt-project/run/baseline_scenario/2/006_create_typical_building_from_model/SR1/in.epw, !- Url
  6B50E0FF;                               !- Checksum

OS:Site:WaterMainsTemperature,
  {287a2120-038a-48eb-88b0-ce912daeba6c}, !- Handle
  Correlation,                            !- Calculation Method
  ,                                       !- Temperature Schedule Name
  8.96666666666667,                       !- Annual Average Outdoor Air Temperature {C}
  26.2;                                   !- Maximum Difference In Monthly Average Outdoor Air Temperatures {deltaC}

OS:SizingPeriod:DesignDay,
  {e2131844-91cf-4675-88f8-480bfef66a17}, !- Handle
  Buffalo Niagara Intl Ap Ann Clg .4% Condns WB=>MDB, !- Name
  27.8,                                   !- Maximum Dry-Bulb Temperature {C}
  9.3,                                    !- Daily Dry-Bulb Temperature Range {deltaC}
  23.8,                                   !- Humidity Indicating Conditions at Maximum Dry-Bulb
  98769,                                  !- Barometric Pressure {Pa}
  5.7,                                    !- Wind Speed {m/s}
  240,                                    !- Wind Direction {deg}
  0,                                      !- Sky Clearness
  0,                                      !- Rain Indicator
  0,                                      !- Snow Indicator
  21,                                     !- Day of Month
  7,                                      !- Month
  SummerDesignDay,                        !- Day Type
  0,                                      !- Daylight Saving Time Indicator
  Wetbulb,                                !- Humidity Indicating Type
  ,                                       !- Humidity Indicating Day Schedule Name
  DefaultMultipliers,                     !- Dry-Bulb Temperature Range Modifier Type
  ,                                       !- Dry-Bulb Temperature Range Modifier Schedule Name
  ASHRAETau,                              !- Solar Model Indicator
  ,                                       !- Beam Solar Day Schedule Name
  ,                                       !- Diffuse Solar Day Schedule Name
  0.462,                                  !- ASHRAE Taub {dimensionless}
  2.001;                                  !- ASHRAE Taud {dimensionless}

OS:SizingPeriod:DesignDay,
  {e04cffd7-0d6d-40d0-bed6-ac6dbc8392af}, !- Handle
  Buffalo Niagara Intl Ap Ann Clg .4% Condns DB=>MWB, !- Name
  30.3,                                   !- Maximum Dry-Bulb Temperature {C}
  9.3,                                    !- Daily Dry-Bulb Temperature Range {deltaC}
  21.8,                                   !- Humidity Indicating Conditions at Maximum Dry-Bulb
  98769,                                  !- Barometric Pressure {Pa}
  5.7,                                    !- Wind Speed {m/s}
  240,                                    !- Wind Direction {deg}
  0,                                      !- Sky Clearness
  0,                                      !- Rain Indicator
  0,                                      !- Snow Indicator
  21,                                     !- Day of Month
  7,                                      !- Month
  SummerDesignDay,                        !- Day Type
  0,                                      !- Daylight Saving Time Indicator
  Wetbulb,                                !- Humidity Indicating Type
  ,                                       !- Humidity Indicating Day Schedule Name
  DefaultMultipliers,                     !- Dry-Bulb Temperature Range Modifier Type
  ,                                       !- Dry-Bulb Temperature Range Modifier Schedule Name
  ASHRAETau,                              !- Solar Model Indicator
  ,                                       !- Beam Solar Day Schedule Name
  ,                                       !- Diffuse Solar Day Schedule Name
  0.462,                                  !- ASHRAE Taub {dimensionless}
  2.001;                                  !- ASHRAE Taud {dimensionless}

OS:SizingPeriod:DesignDay,
  {6feeb694-80db-4c6f-8fd7-1f0238d2ef60}, !- Handle
  Buffalo Niagara Intl Ap Ann Htg 99.6% Condns DB, !- Name
  -16.3,                                  !- Maximum Dry-Bulb Temperature {C}
  0,                                      !- Daily Dry-Bulb Temperature Range {deltaC}
  -16.3,                                  !- Humidity Indicating Conditions at Maximum Dry-Bulb
  98769,                                  !- Barometric Pressure {Pa}
  5.1,                                    !- Wind Speed {m/s}
  270,                                    !- Wind Direction {deg}
  0,                                      !- Sky Clearness
  0,                                      !- Rain Indicator
  0,                                      !- Snow Indicator
  21,                                     !- Day of Month
  1,                                      !- Month
  WinterDesignDay,                        !- Day Type
  0,                                      !- Daylight Saving Time Indicator
  Wetbulb,                                !- Humidity Indicating Type
  ,                                       !- Humidity Indicating Day Schedule Name
  DefaultMultipliers,                     !- Dry-Bulb Temperature Range Modifier Type
  ,                                       !- Dry-Bulb Temperature Range Modifier Schedule Name
  ASHRAEClearSky;                         !- Solar Model Indicator

OS:ClimateZones,
  {1bf089d5-f14f-4f30-944f-e00221cee9e4}, !- Handle
  ,                                       !- Active Institution
  ,                                       !- Active Year
  ASHRAE,                                 !- Climate Zone Institution Name 1
  ANSI/ASHRAE Standard 169,               !- Climate Zone Document Name 1
  2006,                                   !- Climate Zone Document Year 1
  6A;                                     !- Climate Zone Value 1

OS:Node,
  {c4fbb9f3-0de8-45b6-98b8-4f8dc11e7f74}, !- Handle
  Node 1,                                 !- Name
  {efcc6066-daef-4f22-8711-e7e365d06535}, !- Inlet Port
  ;                                       !- Outlet Port

OS:Connection,
  {efcc6066-daef-4f22-8711-e7e365d06535}, !- Handle
  {297b0008-b72a-4e41-aa71-583bad9a40db}, !- Name
  ,                                       !- Source Object
  11,                                     !- Outlet Port
  {c4fbb9f3-0de8-45b6-98b8-4f8dc11e7f74}, !- Target Object
  2;                                      !- Inlet Port

OS:PortList,
  {37f30d2d-d55b-40df-8b78-993e909e2f58}, !- Handle
  {652772fc-cc09-47bf-80cb-08b0b0bd5ab9}, !- Name
  ;                                       !- HVAC Component

OS:PortList,
  {a8d6a1f8-308e-44d6-98d4-e8d2258c9c89}, !- Handle
  {3b8b4951-107e-4dcc-a1e3-e40288341de5}, !- Name
  ;                                       !- HVAC Component

OS:PortList,
  {d1093e6d-2296-4d45-8781-a018093d6ebf}, !- Handle
  {8df1b3b8-430d-44a9-b79c-afdc488f4c55}, !- Name
  ;                                       !- HVAC Component

OS:Node,
  {6e69a7a4-45e5-4d6c-8a3d-028bd9733b12}, !- Handle
  Node 2,                                 !- Name
  {4963ae75-bd82-431a-90bf-73b3b99d8a35}, !- Inlet Port
  ;                                       !- Outlet Port

OS:Connection,
  {4963ae75-bd82-431a-90bf-73b3b99d8a35}, !- Handle
  {fd755707-9a8b-48fc-a391-d200a12fcd72}, !- Name
  ,                                       !- Source Object
  11,                                     !- Outlet Port
  {6e69a7a4-45e5-4d6c-8a3d-028bd9733b12}, !- Target Object
  2;                                      !- Inlet Port

OS:PortList,
  {18a7aa7a-ffa4-4d43-a467-b405b76ec1a5}, !- Handle
  {92ce4a75-2cb5-4c58-85ab-ae32bfa3b6c9}, !- Name
  ;                                       !- HVAC Component

OS:PortList,
  {d1eab893-05d2-4d00-8c4c-a83c4d828db9}, !- Handle
  {09448731-e580-4802-81d6-8a9991560c5f}, !- Name
  ;                                       !- HVAC Component

OS:PortList,
  {ae50f1fa-5829-4d2b-9ee7-c38fea167261}, !- Handle
  {97d87c67-aa9b-4788-adc5-8437fb2b0511}, !- Name
  ;                                       !- HVAC Component

OS:Node,
  {3ed749a5-2e92-4e93-a90a-16404fd9043d}, !- Handle
  Node 3,                                 !- Name
  {f527ca62-d0a6-4a48-b418-5178753b484e}, !- Inlet Port
  ;                                       !- Outlet Port

OS:Connection,
  {f527ca62-d0a6-4a48-b418-5178753b484e}, !- Handle
  {f5f1bd8a-f8a2-4607-a649-af83ed225df6}, !- Name
  ,                                       !- Source Object
  11,                                     !- Outlet Port
  {3ed749a5-2e92-4e93-a90a-16404fd9043d}, !- Target Object
  2;                                      !- Inlet Port

OS:PortList,
  {2983b705-7e2e-4065-8bba-16589d893c24}, !- Handle
  {513dcc32-1b84-48aa-abb2-b6c03e944c4e}, !- Name
  ;                                       !- HVAC Component

OS:PortList,
  {1f56f39f-1ce9-4099-8605-2768cdc189de}, !- Handle
  {d83f90fd-7b2b-4458-b834-fa375846c0b0}, !- Name
  ;                                       !- HVAC Component

OS:PortList,
  {6a722df6-5a42-4d0a-bb0f-a9068dbe3c68}, !- Handle
  {799e7e1b-266e-4f01-93a7-4d5e7e704fb4}, !- Name
  ;                                       !- HVAC Component

OS:Node,
  {6879edac-6078-4c42-bde1-9c74cd32a17b}, !- Handle
  Node 4,                                 !- Name
  {e4736c9f-383c-4bfb-b13e-c19418e2027c}, !- Inlet Port
  ;                                       !- Outlet Port

OS:Connection,
  {e4736c9f-383c-4bfb-b13e-c19418e2027c}, !- Handle
  {5a63691e-7241-4fab-ac6d-a44daaca0b4b}, !- Name
  ,                                       !- Source Object
  11,                                     !- Outlet Port
  {6879edac-6078-4c42-bde1-9c74cd32a17b}, !- Target Object
  2;                                      !- Inlet Port

OS:PortList,
  {8ac8a577-18f9-4ade-8102-5b139db74535}, !- Handle
  {a6771b23-7a0f-437f-b2fc-abc8db3701f7}, !- Name
  ;                                       !- HVAC Component

OS:PortList,
  {b5a554b9-2f88-411e-b0c1-e495627214c6}, !- Handle
  {cc2b1024-ea98-4011-95b2-9632bcec481c}, !- Name
  ,                                       !- HVAC Component
  {45607870-1016-4be3-a462-1f7576579c2b}; !- Port 1

OS:PortList,
  {d47ef0b4-a20b-4f97-9d58-1cf1a8dfcdc4}, !- Handle
  {7dc0e24b-9385-4759-bd49-b2859b13ffba}, !- Name
  ;                                       !- HVAC Component

OS:Node,
  {5ad43a67-f728-423d-bc82-e68a19725404}, !- Handle
  Node 5,                                 !- Name
  {03bd970a-6062-4e67-896f-2e2e457bc563}, !- Inlet Port
  ;                                       !- Outlet Port

OS:Connection,
  {03bd970a-6062-4e67-896f-2e2e457bc563}, !- Handle
  {e03ed27a-a4ab-47d5-ab1f-bb9ae1d1eeda}, !- Name
  ,                                       !- Source Object
  11,                                     !- Outlet Port
  {5ad43a67-f728-423d-bc82-e68a19725404}, !- Target Object
  2;                                      !- Inlet Port

OS:PortList,
  {d8ac4f04-aac9-4109-a829-239f671043a6}, !- Handle
  {da980f81-b3bf-4c97-8182-380092b088cf}, !- Name
  ;                                       !- HVAC Component

OS:PortList,
  {09360abe-ee96-4d41-96c3-4d0bfa6df1fb}, !- Handle
  {4d4f0ebb-67ce-4c9c-b63c-6c0d0634ff89}, !- Name
  ,                                       !- HVAC Component
  {75cc9250-3b3d-4788-8280-48947ecccb59}; !- Port 1

OS:PortList,
  {77ee376c-4da0-47fe-a181-81f5508e0bed}, !- Handle
  {0e9a1f57-0f17-4938-88ce-d53d71fc99f4}, !- Name
  ;                                       !- HVAC Component

OS:Node,
  {11c0f25a-96ae-4426-bed6-61c4bf01937c}, !- Handle
  Node 6,                                 !- Name
  {fbf22cbd-8ffd-4129-9bed-b044d81b623b}, !- Inlet Port
  ;                                       !- Outlet Port

OS:Connection,
  {fbf22cbd-8ffd-4129-9bed-b044d81b623b}, !- Handle
  {2a93c7cd-3843-4ef6-87b4-81ec6ab19b17}, !- Name
  ,                                       !- Source Object
  11,                                     !- Outlet Port
  {11c0f25a-96ae-4426-bed6-61c4bf01937c}, !- Target Object
  2;                                      !- Inlet Port

OS:PortList,
  {2d64d8df-c481-4357-b01a-8c424cc65d90}, !- Handle
  {67985c9e-9714-4a3c-8f0d-a5762674a552}, !- Name
  ;                                       !- HVAC Component

OS:PortList,
  {64ca5ebd-4a34-4230-828d-7ea0dfc33660}, !- Handle
  {e45ba55b-b4db-43f7-af99-bd3909f1d2a5}, !- Name
  ,                                       !- HVAC Component
  {dac8e9a1-eb00-4d37-adbe-61233e264705}; !- Port 1

OS:PortList,
  {2537cf07-78fc-4016-a235-37d8a7f17bdb}, !- Handle
  {161e54a6-7d1b-4fa1-b92e-6c96d30e3f29}, !- Name
  ;                                       !- HVAC Component

OS:Node,
  {23dc52db-444e-47d9-9273-29cf2af24ad9}, !- Handle
  Node 7,                                 !- Name
  {0fd38cf0-a7da-43ad-a996-af947c4fab46}, !- Inlet Port
  ;                                       !- Outlet Port

OS:Connection,
  {0fd38cf0-a7da-43ad-a996-af947c4fab46}, !- Handle
  {2f59837e-d873-450f-a70e-031c6f4f7174}, !- Name
  ,                                       !- Source Object
  11,                                     !- Outlet Port
  {23dc52db-444e-47d9-9273-29cf2af24ad9}, !- Target Object
  2;                                      !- Inlet Port

OS:PortList,
  {94a6b367-bdb0-45b1-85ae-d41468294950}, !- Handle
  {a455c211-e975-4fb1-bd38-bd9867bac060}, !- Name
  ;                                       !- HVAC Component

OS:PortList,
  {4bf2cb60-d6a2-487c-abd6-29e35d2058e6}, !- Handle
  {4bd4af8f-b9c7-4eae-94a0-cc418978b334}, !- Name
  ,                                       !- HVAC Component
  {74576314-e4a0-44b9-9ca7-f0c5496e22b3}; !- Port 1

OS:PortList,
  {fec4c748-a520-4f89-849c-a176dc4a06d5}, !- Handle
  {f05ef365-b318-49b6-abec-be1063649013}, !- Name
  ;                                       !- HVAC Component

OS:Node,
  {b35a0ca9-2029-484e-8b4b-b0dbe9bdf90e}, !- Handle
  Node 8,                                 !- Name
  {0f247018-bf55-4db5-a3d0-3b2b859e4048}, !- Inlet Port
  ;                                       !- Outlet Port

OS:Connection,
  {0f247018-bf55-4db5-a3d0-3b2b859e4048}, !- Handle
  {91ab6ab9-00eb-40f1-a45c-6a2d23fd31bf}, !- Name
  ,                                       !- Source Object
  11,                                     !- Outlet Port
  {b35a0ca9-2029-484e-8b4b-b0dbe9bdf90e}, !- Target Object
  2;                                      !- Inlet Port

OS:PortList,
  {519b1e1c-8bb5-4d07-93c0-cf146129fb66}, !- Handle
  {ec9ebbb9-337f-424d-a4bb-023ae938c71e}, !- Name
  ;                                       !- HVAC Component

OS:PortList,
  {05b29880-951d-4063-93e8-7fa008bdb161}, !- Handle
  {eeae8d4e-bc01-48ec-b54b-293a94d01b68}, !- Name
  ,                                       !- HVAC Component
  {c98c8227-fdcd-49aa-9b4b-212b72a73d51}; !- Port 1

OS:PortList,
  {f807cf97-2e98-4656-9951-16cdf7a75821}, !- Handle
  {bf537a9c-17ce-493a-bafe-6920229f3aa0}, !- Name
  ;                                       !- HVAC Component

OS:Node,
  {0ca8efdc-92f2-4a7a-8592-79571eae9768}, !- Handle
  Node 9,                                 !- Name
  {9552b96e-72c1-4d4d-a266-b7939c4ea0f9}, !- Inlet Port
  ;                                       !- Outlet Port

OS:Connection,
  {9552b96e-72c1-4d4d-a266-b7939c4ea0f9}, !- Handle
  {cf4df521-ea0b-4f41-8422-d0a1d03a2c89}, !- Name
  ,                                       !- Source Object
  11,                                     !- Outlet Port
  {0ca8efdc-92f2-4a7a-8592-79571eae9768}, !- Target Object
  2;                                      !- Inlet Port

OS:PortList,
  {8f233600-1298-4077-88a5-ab9f3180e9fd}, !- Handle
  {02b14b1e-17f8-4e23-978e-c227b7bf6d9b}, !- Name
  ;                                       !- HVAC Component

OS:PortList,
  {11eeede2-d5f6-4336-b17f-83eadf97bf3b}, !- Handle
  {bd0ec21d-33fe-45a0-90e5-2b7750ac1b6f}, !- Name
  ,                                       !- HVAC Component
  {a67bdf20-7fb3-4496-b3fe-c7024819cb80}; !- Port 1

OS:PortList,
  {556564ed-a6ab-4e18-87c6-c9ccc2c6731f}, !- Handle
  {9a1654ec-9a65-498e-929c-9c694c2fd75c}, !- Name
  ;                                       !- HVAC Component

OS:Node,
  {07aaadd8-1842-4387-9be4-1e25ff801352}, !- Handle
  Node 10,                                !- Name
  {354309a5-f784-4cac-9901-86471e71aebd}, !- Inlet Port
  ;                                       !- Outlet Port

OS:Connection,
  {354309a5-f784-4cac-9901-86471e71aebd}, !- Handle
  {5a91b3e9-c9b7-4a59-851e-7ea3795c7a97}, !- Name
  ,                                       !- Source Object
  11,                                     !- Outlet Port
  {07aaadd8-1842-4387-9be4-1e25ff801352}, !- Target Object
  2;                                      !- Inlet Port

OS:PortList,
  {85c62833-bc81-4c95-a376-b56434501b51}, !- Handle
  {f8e0a86e-23df-48a6-8df6-b9a06e527dca}, !- Name
  ;                                       !- HVAC Component

OS:PortList,
  {35c67a89-8def-4492-a379-0cc62f6e85ca}, !- Handle
  {35a56af9-01f3-4416-81a6-c7a3598ba591}, !- Name
  ,                                       !- HVAC Component
  {7e74eeb4-a644-4a16-a3fa-d9696ee19285}; !- Port 1

OS:PortList,
  {13c4365d-4d9b-4c93-92d9-830c63458660}, !- Handle
  {49871785-981f-43e3-861f-061a620ed88b}, !- Name
  ;                                       !- HVAC Component

OS:Node,
  {fc49b53b-26f4-4df0-a5f9-c1cdedd7ba53}, !- Handle
  Node 11,                                !- Name
  {8b8af948-96b3-445d-a21b-cea6fc63bf1c}, !- Inlet Port
  ;                                       !- Outlet Port

OS:Connection,
  {8b8af948-96b3-445d-a21b-cea6fc63bf1c}, !- Handle
  {846e5877-11e8-4ba3-8dfe-22fe13047386}, !- Name
  ,                                       !- Source Object
  11,                                     !- Outlet Port
  {fc49b53b-26f4-4df0-a5f9-c1cdedd7ba53}, !- Target Object
  2;                                      !- Inlet Port

OS:PortList,
  {5937129b-b998-4fec-bb49-18d86a087f43}, !- Handle
  {ef401d6e-ee0b-4681-95e9-89cccaae603e}, !- Name
  ;                                       !- HVAC Component

OS:PortList,
  {5cccc2f3-2786-49ee-a982-4aa4aed24338}, !- Handle
  {713afb1e-d98c-4dc0-b4c4-7df058aeea07}, !- Name
  ,                                       !- HVAC Component
  {0868ee3e-7759-464a-b122-a1bb7c5efa2f}; !- Port 1

OS:PortList,
  {dbd6df9a-edfc-4e26-86e3-f45b311b6e45}, !- Handle
  {f9224c0c-b9df-420d-8735-4af0d763f7d9}, !- Name
  ;                                       !- HVAC Component

OS:Node,
  {8c4094c5-6831-49e1-8b58-bcbaa829084c}, !- Handle
  Node 12,                                !- Name
  {c627638c-f320-49e9-811a-29c41c4372a6}, !- Inlet Port
  ;                                       !- Outlet Port

OS:Connection,
  {c627638c-f320-49e9-811a-29c41c4372a6}, !- Handle
  {390c8ab5-63de-4b6a-a621-4ba4c160cf3c}, !- Name
  ,                                       !- Source Object
  11,                                     !- Outlet Port
  {8c4094c5-6831-49e1-8b58-bcbaa829084c}, !- Target Object
  2;                                      !- Inlet Port

OS:PortList,
  {5961ad36-47d7-46d0-95d0-6bd172102887}, !- Handle
  {df1c5aa6-92b2-4658-bdc6-9e3acf7b723b}, !- Name
  ;                                       !- HVAC Component

OS:PortList,
  {ab73f615-815d-46b0-81a2-2c4f764eb271}, !- Handle
  {296c5e45-2776-49e0-8fc7-ee0b5abf166a}, !- Name
  ,                                       !- HVAC Component
  {02c23d5b-95fe-4372-ad0e-1c15884099fd}; !- Port 1

OS:PortList,
  {6c0977c5-2102-493b-9a2f-3acfe1476d26}, !- Handle
  {9c431599-146c-4ccd-a13b-3945d4ff9f42}, !- Name
  ;                                       !- HVAC Component

OS:RunPeriodControl:DaylightSavingTime,
  {ba04804e-5eaf-4cbc-8a72-5dcbf7701f3d}, !- Handle
  2nd Sunday in March,                    !- Start Date
  1st Sunday in November;                 !- End Date

OS:People:Definition,
  {9f24eb21-dbb9-4dfc-966e-7a97c4623aca}, !- Handle
  FullServiceRestaurant Kitchen People Definition, !- Name
  People/Area,                            !- Number of People Calculation Method
  ,                                       !- Number of People {people}
  0.0538195520835486,                     !- People per Space Floor Area {person/m2}
  ,                                       !- Space Floor Area per Person {m2/person}
  0.3;                                    !- Fraction Radiant

OS:Schedule:Ruleset,
  {69fe5893-47f6-4850-80ca-fa77cd76f8d0}, !- Handle
  Clothing Schedule,                      !- Name
  {6a7b429b-d05f-4ef5-aa9d-86054049d56e}, !- Schedule Type Limits Name
  {78823534-2a39-479e-9b6b-42bb5221fada}; !- Default Day Schedule Name

OS:Schedule:Day,
  {78823534-2a39-479e-9b6b-42bb5221fada}, !- Handle
  Clothing Schedule Default Winter Clothes, !- Name
  {6a7b429b-d05f-4ef5-aa9d-86054049d56e}, !- Schedule Type Limits Name
  ,                                       !- Interpolate to Timestep
  24,                                     !- Hour 1
  0,                                      !- Minute 1
  1;                                      !- Value Until Time 1

OS:Schedule:Rule,
  {d7e2eae4-fe95-461c-9a08-cd4cf78c5953}, !- Handle
  Schedule Rule 1,                        !- Name
  {69fe5893-47f6-4850-80ca-fa77cd76f8d0}, !- Schedule Ruleset Name
  0,                                      !- Rule Order
  {2754dc4a-ad11-4c7c-9c15-c021e5e47f1a}, !- Day Schedule Name
  ,                                       !- Apply Sunday
  ,                                       !- Apply Monday
  ,                                       !- Apply Tuesday
  ,                                       !- Apply Wednesday
  ,                                       !- Apply Thursday
  ,                                       !- Apply Friday
  ,                                       !- Apply Saturday
  ,                                       !- Apply Holiday
  DateRange,                              !- Date Specification Type
  5,                                      !- Start Month
  1,                                      !- Start Day
  9,                                      !- End Month
  30;                                     !- End Day

OS:Schedule:Day,
  {2754dc4a-ad11-4c7c-9c15-c021e5e47f1a}, !- Handle
  Clothing Schedule Summer Clothes,       !- Name
  {6a7b429b-d05f-4ef5-aa9d-86054049d56e}, !- Schedule Type Limits Name
  ,                                       !- Interpolate to Timestep
  24,                                     !- Hour 1
  0,                                      !- Minute 1
  0.5;                                    !- Value Until Time 1

OS:ScheduleTypeLimits,
  {6a7b429b-d05f-4ef5-aa9d-86054049d56e}, !- Handle
  ClothingInsulation,                     !- Name
  0,                                      !- Lower Limit Value
  ,                                       !- Upper Limit Value
  Continuous,                             !- Numeric Type
  ClothingInsulation;                     !- Unit Type

OS:Schedule:Ruleset,
  {55de14f6-6f39-453f-8659-4e103e1e7894}, !- Handle
  Air Velocity Schedule,                  !- Name
  {96af77be-83fa-4f17-ab5d-8dc918734406}, !- Schedule Type Limits Name
  {5af9a468-4b7e-42ec-ba47-3ba4b5faebfc}; !- Default Day Schedule Name

OS:Schedule:Day,
  {5af9a468-4b7e-42ec-ba47-3ba4b5faebfc}, !- Handle
  Air Velocity Schedule Default,          !- Name
  {96af77be-83fa-4f17-ab5d-8dc918734406}, !- Schedule Type Limits Name
  ,                                       !- Interpolate to Timestep
  24,                                     !- Hour 1
  0,                                      !- Minute 1
  0.2;                                    !- Value Until Time 1

OS:ScheduleTypeLimits,
  {96af77be-83fa-4f17-ab5d-8dc918734406}, !- Handle
  Velocity,                               !- Name
  0,                                      !- Lower Limit Value
  ,                                       !- Upper Limit Value
  Continuous,                             !- Numeric Type
  Velocity;                               !- Unit Type

OS:Schedule:Ruleset,
  {272e979a-4d7b-4d4a-a046-54957d0d2ee3}, !- Handle
  Work Efficiency Schedule,               !- Name
  {52b2d756-168f-46e2-b380-8d6433661d5b}, !- Schedule Type Limits Name
  {57f2e19c-c430-4942-b7b3-398cda31b4f0}; !- Default Day Schedule Name

OS:Schedule:Day,
  {57f2e19c-c430-4942-b7b3-398cda31b4f0}, !- Handle
  Work Efficiency Schedule Default,       !- Name
  {52b2d756-168f-46e2-b380-8d6433661d5b}, !- Schedule Type Limits Name
  ,                                       !- Interpolate to Timestep
  24,                                     !- Hour 1
  0,                                      !- Minute 1
  0;                                      !- Value Until Time 1

OS:ScheduleTypeLimits,
  {52b2d756-168f-46e2-b380-8d6433661d5b}, !- Handle
  Fractional,                             !- Name
  0,                                      !- Lower Limit Value
  1,                                      !- Upper Limit Value
  Continuous;                             !- Numeric Type

OS:Lights:Definition,
  {bc9b5f60-18d2-42b6-8275-e4d5dcb0b4e8}, !- Handle
  FullServiceRestaurant Kitchen Lights Definition, !- Name
  Watts/Area,                             !- Design Level Calculation Method
  ,                                       !- Lighting Level {W}
  12.9166925000517,                       !- Watts per Space Floor Area {W/m2}
  ,                                       !- Watts per Person {W/person}
  0.7,                                    !- Fraction Radiant
  0.2;                                    !- Fraction Visible

OS:AdditionalProperties,
  {2cd45573-fe75-4b75-aad1-34ca3e5e758b}, !- Handle