
OS:Version,
  {33df365c-aace-44a8-a649-f5f20117a8a3}, !- Handle
  2.8.0;                                  !- Version Identifier

OS:Facility,
  {6c207d91-9a66-4ff2-b140-86560283feac}; !- Handle

OS:Site,
  {a5ced713-1ba1-4a49-ade8-587e4a48e171}, !- Handle
  Buffalo Niagara Intl Ap_NY_USA,         !- Name
  42.813153418927,                        !- Latitude {deg}
  -78.8478679776468,                      !- Longitude {deg}
  -5,                                     !- Time Zone {hr}
  215,                                    !- Elevation {m}
  City;                                   !- Terrain

OS:SimulationControl,
  {2e7a3e49-0300-498b-876e-76e0bc625eaf}, !- Handle
  ,                                       !- Do Zone Sizing Calculation
  ,                                       !- Do System Sizing Calculation
  ,                                       !- Do Plant Sizing Calculation
  Yes,                                    !- Run Simulation for Sizing Periods
  No;                                     !- Run Simulation for Weather File Run Periods

OS:Sizing:Parameters,
  {c00bae4c-2787-445f-90f9-7234499f254d}, !- Handle
  1.25,                                   !- Heating Sizing Factor
  1.15;                                   !- Cooling Sizing Factor

OS:Timestep,
  {d6faa75b-1861-4d0a-a58a-01b40f6548d3}, !- Handle
  1;                                      !- Number of Timesteps per Hour

OS:ShadowCalculation,
  {0b58aa6b-ce1f-40ea-bbde-b3c32783238c}, !- Handle
  20,                                     !- Calculation Frequency
  15000;                                  !- Maximum Figures in Shadow Overlap Calculations

OS:HeatBalanceAlgorithm,
  {974403f4-b704-42d7-8444-d1657dd6f681}, !- Handle
  ConductionTransferFunction,             !- Algorithm
  200;                                    !- Surface Temperature Upper Limit {C}

OS:RunPeriod,
  {d48aaaad-1240-4126-bb45-65077e03cfab}, !- Handle
  Run Period 1,                           !- Name
  1,                                      !- Begin Month
  1,                                      !- Begin Day of Month
  12,                                     !- End Month
  31,                                     !- End Day of Month
  ,                                       !- Use Weather File Holidays and Special Days
  ,                                       !- Use Weather File Daylight Saving Period
  ,                                       !- Apply Weekend Holiday Rule
  ,                                       !- Use Weather File Rain Indicators
  ,                                       !- Use Weather File Snow Indicators
  ;                                       !- Number of Times Runperiod to be Repeated

OS:LifeCycleCost:Parameters,
  {77807c62-8f37-40fb-b8ea-0e95153bf191}, !- Handle
  ,                                       !- Analysis Type
  ,                                       !- Discounting Convention
  ,                                       !- Inflation Approach
  ,                                       !- Real Discount Rate
  ,                                       !- Nominal Discount Rate
  ,                                       !- Inflation
  ,                                       !- Base Date Month
  ,                                       !- Base Date Year
  ,                                       !- Service Date Month
  ,                                       !- Service Date Year
  ;                                       !- Length of Study Period in Years

OS:YearDescription,
  {ab9f780f-741c-4484-ae34-abec94410e4c}, !- Handle
  2018,                                   !- Calendar Year
  ,                                       !- Day of Week for Start Day
  ;                                       !- Is Leap Year

OS:WeatherFile,
  {79e91de4-d201-45fc-aed4-b87e8c0e90fd}, !- Handle
  Buffalo Niagara Intl Ap,                !- City
  NY,                                     !- State Province Region
  USA,                                    !- Country
  TMY3,                                   !- Data Source
  725280,                                 !- WMO Number
  42.93,                                  !- Latitude {deg}
  -78.73,                                 !- Longitude {deg}
  -5,                                     !- Time Zone {hr}
  215,                                    !- Elevation {m}
  file:////Users/tkwasnik/github/urbanopt-example-geojson-reopt-project/weather/USA_NY_Buffalo-Greater.Buffalo.Intl.AP.725280_TMY3.epw, !- Url
  ;                                       !- Checksum

OS:Site:WaterMainsTemperature,
  {4f938cff-82e8-465f-bf0f-2ed387d0a024}, !- Handle
  Correlation,                            !- Calculation Method
  ,                                       !- Temperature Schedule Name
  8.96666666666667,                       !- Annual Average Outdoor Air Temperature {C}
  26.2;                                   !- Maximum Difference In Monthly Average Outdoor Air Temperatures {deltaC}

OS:SizingPeriod:DesignDay,
  {efde9f4b-a382-456b-b056-29517827f352}, !- Handle
  Buffalo Niagara Intl Ap Ann Clg .4% Condns WB=>MDB, !- Name
  27.8,                                   !- Maximum Dry-Bulb Temperature {C}
  9.3,                                    !- Daily Dry-Bulb Temperature Range {deltaC}
  23.8,                                   !- Humidity Indicating Conditions at Maximum Dry-Bulb
  98769,                                  !- Barometric Pressure {Pa}
  5.7,                                    !- Wind Speed {m/s}
  240,                                    !- Wind Direction {deg}
  0,                                      !- Sky Clearness
  0,                                      !- Rain Indicator
  0,                                      !- Snow Indicator
  21,                                     !- Day of Month
  7,                                      !- Month
  SummerDesignDay,                        !- Day Type
  0,                                      !- Daylight Saving Time Indicator
  Wetbulb,                                !- Humidity Indicating Type
  ,                                       !- Humidity Indicating Day Schedule Name
  DefaultMultipliers,                     !- Dry-Bulb Temperature Range Modifier Type
  ,                                       !- Dry-Bulb Temperature Range Modifier Schedule Name
  ASHRAETau,                              !- Solar Model Indicator
  ,                                       !- Beam Solar Day Schedule Name
  ,                                       !- Diffuse Solar Day Schedule Name
  0.462,                                  !- ASHRAE Taub {dimensionless}
  2.001;                                  !- ASHRAE Taud {dimensionless}

OS:SizingPeriod:DesignDay,
  {1735dc7c-e069-41ab-94d5-df08a8622078}, !- Handle
  Buffalo Niagara Intl Ap Ann Htg 99.6% Condns DB, !- Name
  -16.3,                                  !- Maximum Dry-Bulb Temperature {C}
  0,                                      !- Daily Dry-Bulb Temperature Range {deltaC}
  -16.3,                                  !- Humidity Indicating Conditions at Maximum Dry-Bulb
  98769,                                  !- Barometric Pressure {Pa}
  5.1,                                    !- Wind Speed {m/s}
  270,                                    !- Wind Direction {deg}
  0,                                      !- Sky Clearness
  0,                                      !- Rain Indicator
  0,                                      !- Snow Indicator
  21,                                     !- Day of Month
  1,                                      !- Month
  WinterDesignDay,                        !- Day Type
  0,                                      !- Daylight Saving Time Indicator
  Wetbulb,                                !- Humidity Indicating Type
  ,                                       !- Humidity Indicating Day Schedule Name
  DefaultMultipliers,                     !- Dry-Bulb Temperature Range Modifier Type
  ,                                       !- Dry-Bulb Temperature Range Modifier Schedule Name
  ASHRAEClearSky;                         !- Solar Model Indicator

OS:SizingPeriod:DesignDay,
  {0a7d9cf2-167a-4020-844f-4d9ab459042b}, !- Handle
  Buffalo Niagara Intl Ap Ann Clg .4% Condns DB=>MWB, !- Name
  30.3,                                   !- Maximum Dry-Bulb Temperature {C}
  9.3,                                    !- Daily Dry-Bulb Temperature Range {deltaC}
  21.8,                                   !- Humidity Indicating Conditions at Maximum Dry-Bulb
  98769,                                  !- Barometric Pressure {Pa}
  5.7,                                    !- Wind Speed {m/s}
  240,                                    !- Wind Direction {deg}
  0,                                      !- Sky Clearness
  0,                                      !- Rain Indicator
  0,                                      !- Snow Indicator
  21,                                     !- Day of Month
  7,                                      !- Month
  SummerDesignDay,                        !- Day Type
  0,                                      !- Daylight Saving Time Indicator
  Wetbulb,                                !- Humidity Indicating Type
  ,                                       !- Humidity Indicating Day Schedule Name
  DefaultMultipliers,                     !- Dry-Bulb Temperature Range Modifier Type
  ,                                       !- Dry-Bulb Temperature Range Modifier Schedule Name
  ASHRAETau,                              !- Solar Model Indicator
  ,                                       !- Beam Solar Day Schedule Name
  ,                                       !- Diffuse Solar Day Schedule Name
  0.462,                                  !- ASHRAE Taub {dimensionless}
  2.001;                                  !- ASHRAE Taud {dimensionless}

OS:ClimateZones,
  {499dc2fa-76a3-42f2-a31e-579f0887a743}, !- Handle
  ,                                       !- Active Institution
  ,                                       !- Active Year
  ASHRAE,                                 !- Climate Zone Institution Name 1
  ANSI/ASHRAE Standard 169,               !- Climate Zone Document Name 1
  2006,                                   !- Climate Zone Document Year 1
  6A;                                     !- Climate Zone Value 1

OS:Node,
  {377d5c23-a8ed-40ce-8e69-b84b8d8af0c9}, !- Handle
  Node 1,                                 !- Name
  {385df187-1a15-4c6e-95b6-155208f2021c}, !- Inlet Port
  ;                                       !- Outlet Port

OS:Connection,
  {385df187-1a15-4c6e-95b6-155208f2021c}, !- Handle
  {96159ef6-3e5a-4939-a1f3-d2c1a2774e84}, !- Name
  ,                                       !- Source Object
  11,                                     !- Outlet Port
  {377d5c23-a8ed-40ce-8e69-b84b8d8af0c9}, !- Target Object
  2;                                      !- Inlet Port

OS:PortList,
  {b0adfe2a-68cc-4d8d-932f-8e98e462ebe9}, !- Handle
  {cdc9f279-80cf-408f-9348-4eaf6d4922ee}, !- Name
  ;                                       !- HVAC Component

OS:PortList,
  {833e0976-966a-4a25-b7bf-c8e29079458f}, !- Handle
  {022300ef-8d9f-4f7c-92f0-6aad33504ef2}, !- Name
  ,                                       !- HVAC Component
  {f090648b-080a-4176-be6a-ebd92c94acd0}; !- Port 1

OS:PortList,
  {3c824da1-8af0-4bd1-be12-4eac981d7d5d}, !- Handle
  {a77b882d-954e-4b11-b802-b1077875496d}, !- Name
  ;                                       !- HVAC Component

OS:Node,
  {4b852c5c-0086-4898-a982-569a4e06baa9}, !- Handle
  Node 2,                                 !- Name
  {c46a9ebe-0254-41c5-ab81-871d68214285}, !- Inlet Port
  ;                                       !- Outlet Port

OS:Connection,
  {c46a9ebe-0254-41c5-ab81-871d68214285}, !- Handle
  {db008760-1cdf-475f-8cda-bfe6c6377c9c}, !- Name
  ,                                       !- Source Object
  11,                                     !- Outlet Port
  {4b852c5c-0086-4898-a982-569a4e06baa9}, !- Target Object
  2;                                      !- Inlet Port

OS:PortList,
  {f2e8c204-0080-4aba-9fff-81562952e74f}, !- Handle
  {cb855e7a-6951-4c53-95e4-51e1cd8223c7}, !- Name
  ;                                       !- HVAC Component

OS:PortList,
  {2e0d529d-8778-4033-8667-cb80c662405a}, !- Handle
  {54804a10-54d2-42af-8944-437fac0aec60}, !- Name
  ,                                       !- HVAC Component
  {e5cbe4ec-9e80-4494-873a-ccc7122625ec}; !- Port 1

OS:PortList,
  {1f981947-8ded-48a4-bcad-52e8866354d3}, !- Handle
  {d9c32dc6-5978-4c05-89e8-b823e3125d0e}, !- Name
  ;                                       !- HVAC Component

OS:Node,
  {d3b4553d-8066-463e-a6ef-f8a57cb3f9a4}, !- Handle
  Node 3,                                 !- Name
  {671479f3-ac7f-4443-ab94-dce4e1047488}, !- Inlet Port
  ;                                       !- Outlet Port

OS:Connection,
  {671479f3-ac7f-4443-ab94-dce4e1047488}, !- Handle
  {2908cb9f-d2db-4ef6-9767-fc9fa9083d60}, !- Name
  ,                                       !- Source Object
  11,                                     !- Outlet Port
  {d3b4553d-8066-463e-a6ef-f8a57cb3f9a4}, !- Target Object
  2;                                      !- Inlet Port

OS:PortList,
  {4b9c798d-382e-4282-bb34-1c6ebc8235bc}, !- Handle
  {bed3f671-09cb-4ab8-8a24-f71da1d4b3bd}, !- Name
  ;                                       !- HVAC Component

OS:PortList,
  {25da86cc-40fe-4449-9629-b7595d44de40}, !- Handle
  {0a04bfa4-512c-4276-bafe-dd5931c0878d}, !- Name
  ,                                       !- HVAC Component
  {a754dd56-ed8b-48a2-a4ae-772fe61ae7ef}; !- Port 1

OS:PortList,
  {15fa26f7-4ef9-49ad-9653-0012b5a814dc}, !- Handle
  {f987decf-0c51-408c-968d-4613da30d17f}, !- Name
  ;                                       !- HVAC Component

OS:Node,
  {f2b73a70-3a77-4c84-811d-441062c26e6a}, !- Handle
  Node 4,                                 !- Name
  {3c338174-a5c4-437c-b8fc-dc7412babc2e}, !- Inlet Port
  ;                                       !- Outlet Port

OS:Connection,
  {3c338174-a5c4-437c-b8fc-dc7412babc2e}, !- Handle
  {9f65bd88-59d5-41a8-bb15-371c7bbcd278}, !- Name
  ,                                       !- Source Object
  11,                                     !- Outlet Port
  {f2b73a70-3a77-4c84-811d-441062c26e6a}, !- Target Object
  2;                                      !- Inlet Port

OS:PortList,
  {ec53b20e-ad46-4012-8e67-6f75d6c28234}, !- Handle
  {25d81110-9118-4f08-a3f3-28876b9ae31b}, !- Name
  ;                                       !- HVAC Component

OS:PortList,
  {bf344dfe-217b-4fb1-a035-fa30fa6567ae}, !- Handle
  {07baee5a-261f-4923-937b-5fe9eb3282ff}, !- Name
  ,                                       !- HVAC Component
  {e5bc7c5f-c9bb-4715-9e78-9f85576c4a0a}; !- Port 1

OS:PortList,
  {d80dd5f5-ca62-46ce-b992-3e88ef90b7fa}, !- Handle
  {036bf321-ae4f-4383-9c96-8785560f98d5}, !- Name
  ;                                       !- HVAC Component

OS:Node,
  {2b4ec1f6-c423-41a0-84d1-56275fee8caa}, !- Handle
  Node 5,                                 !- Name
  {4b037da2-59cd-4aa0-b3d4-cded554ebfd1}, !- Inlet Port
  ;                                       !- Outlet Port

OS:Connection,
  {4b037da2-59cd-4aa0-b3d4-cded554ebfd1}, !- Handle
  {203dee5b-4219-4e0b-8060-61811e2e87a1}, !- Name
  ,                                       !- Source Object
  11,                                     !- Outlet Port
  {2b4ec1f6-c423-41a0-84d1-56275fee8caa}, !- Target Object
  2;                                      !- Inlet Port

OS:PortList,
  {c89c0c19-474d-400f-861e-f933033e94ff}, !- Handle
  {f617badb-3ffe-47da-9337-ddaab4a055d2}, !- Name
  ;                                       !- HVAC Component

OS:PortList,
  {64f7063b-415f-4792-8595-799a1f0ed191}, !- Handle
  {ec340c8d-96f1-44bb-bdf5-74cc91e0c800}, !- Name
  ,                                       !- HVAC Component
  {83efbaf2-43f3-452f-921a-b30c3890a490}; !- Port 1

OS:PortList,
  {62d5aeb4-fdd6-489c-be93-5adbaf0ab2aa}, !- Handle
  {68b4112d-55ab-4069-8967-f33188bdc4a4}, !- Name
  ;                                       !- HVAC Component

OS:Node,
  {f0eee77c-e5fe-4ed6-801a-ead89fd32a39}, !- Handle
  Node 6,                                 !- Name
  {7fb00c58-105b-461a-b72f-3720c0501666}, !- Inlet Port
  ;                                       !- Outlet Port

OS:Connection,
  {7fb00c58-105b-461a-b72f-3720c0501666}, !- Handle
  {a63f0853-44af-4cee-bd2a-6f97dba927aa}, !- Name
  ,                                       !- Source Object
  11,                                     !- Outlet Port
  {f0eee77c-e5fe-4ed6-801a-ead89fd32a39}, !- Target Object
  2;                                      !- Inlet Port

OS:PortList,
  {459904c0-e1d9-478c-b3ba-53359384d0ba}, !- Handle
  {4fd0fd1e-97fc-47a6-bf4e-73f748bda1d0}, !- Name
  ;                                       !- HVAC Component

OS:PortList,
  {e8141614-025e-4b4e-aca6-b80ec40e0aa1}, !- Handle
  {60abda48-d211-4995-a6cf-f8cf1f8e4f81}, !- Name
  ,                                       !- HVAC Component
  {42ed2762-f7af-4abd-9276-9e9a01e9e711}; !- Port 1

OS:PortList,
  {9e76c3c8-26e3-4777-875a-9fb42ecf3f1d}, !- Handle
  {b4ba927f-56ac-4400-a202-2e649a064385}, !- Name
  ;                                       !- HVAC Component

OS:Node,
  {bc06692b-89f7-4795-8a23-c2a49db26156}, !- Handle
  Node 7,                                 !- Name
  {5598592f-a3e4-49ed-9622-b434804aa881}, !- Inlet Port
  ;                                       !- Outlet Port

OS:Connection,
  {5598592f-a3e4-49ed-9622-b434804aa881}, !- Handle
  {f219cec8-d1ca-4c3a-92e4-68c1f684bf19}, !- Name
  ,                                       !- Source Object
  11,                                     !- Outlet Port
  {bc06692b-89f7-4795-8a23-c2a49db26156}, !- Target Object
  2;                                      !- Inlet Port

OS:PortList,
  {f8bd54a3-2114-45f8-8272-13b7b913dd20}, !- Handle
  {f52a7267-1d7e-44a9-8867-c7f0be1fb7f9}, !- Name
  ;                                       !- HVAC Component

OS:PortList,
  {b86ce870-5e66-4def-9ca2-89382a13120e}, !- Handle
  {ccf3040c-09f7-4405-9a1d-48002df45183}, !- Name
  ,                                       !- HVAC Component
  {e83d9569-beec-491f-8021-9c4920ceb2d5}; !- Port 1

OS:PortList,
  {a24658be-da4d-4e33-9328-772beb4abd3b}, !- Handle
  {38ab159f-885d-446c-b8e2-68ecdbc3d65a}, !- Name
  ;                                       !- HVAC Component

OS:Node,
  {6e9f9da6-deda-453e-ab51-98634198580f}, !- Handle
  Node 8,                                 !- Name
  {d51e694d-d684-47a3-bc90-b8090b8f40b2}, !- Inlet Port
  ;                                       !- Outlet Port

OS:Connection,
  {d51e694d-d684-47a3-bc90-b8090b8f40b2}, !- Handle
  {0948417c-a458-4485-bfdc-6212bef58620}, !- Name
  ,                                       !- Source Object
  11,                                     !- Outlet Port
  {6e9f9da6-deda-453e-ab51-98634198580f}, !- Target Object
  2;                                      !- Inlet Port

OS:PortList,
  {978d2d27-f72e-4b7e-a950-63824c300428}, !- Handle
  {e4dcc62b-3b3b-4a4c-a107-36bd616c0eb1}, !- Name
  ;                                       !- HVAC Component

OS:PortList,
  {8b5220f6-5814-4d91-ad2b-3affb47c341c}, !- Handle
  {f148b109-2c51-4b32-8941-8e2dde03a0a7}, !- Name
  ,                                       !- HVAC Component
  {99540978-e9e9-494b-a67e-5faadca130c3}; !- Port 1

OS:PortList,
  {6632e137-8ea2-4ee9-85f8-2ac6792510d7}, !- Handle
  {2b81063e-580e-4e8e-a1ed-9abd8c72adbe}, !- Name
  ;                                       !- HVAC Component

OS:Node,
  {714f6d5b-b80c-4c8e-894c-bfa314678923}, !- Handle
  Node 9,                                 !- Name
  {a4c966df-3d8a-4939-aac0-bc6751041537}, !- Inlet Port
  ;                                       !- Outlet Port

OS:Connection,
  {a4c966df-3d8a-4939-aac0-bc6751041537}, !- Handle
  {3ef85ae5-752a-48ce-98d2-15d06c7618ab}, !- Name
  ,                                       !- Source Object
  11,                                     !- Outlet Port
  {714f6d5b-b80c-4c8e-894c-bfa314678923}, !- Target Object
  2;                                      !- Inlet Port

OS:PortList,
  {bfa0dde6-348a-4d7e-8cd1-2202611f7122}, !- Handle
  {834268a2-bd37-415d-9b9d-524e680d170e}, !- Name
  ;                                       !- HVAC Component

OS:PortList,
  {43d89ba6-a6dd-4320-9107-022f3414eeb2}, !- Handle
  {67809ed2-487b-4aef-a557-d6e935533acc}, !- Name
  ,                                       !- HVAC Component
  {f8abda35-f905-4d75-9144-e435560c9c81}; !- Port 1

OS:PortList,
  {1fa5ea98-e55f-44e5-b05e-e1046ad99fdd}, !- Handle
  {8792a885-78d6-4f3a-b073-f661d9d78b1a}, !- Name
  ;                                       !- HVAC Component

OS:Node,
  {e7af7af2-c8af-4f78-b78d-eb94aaff174f}, !- Handle
  Node 10,                                !- Name
  {edfa2be5-effe-40b3-aba3-3dc1c8c5ab12}, !- Inlet Port
  ;                                       !- Outlet Port

OS:Connection,
  {edfa2be5-effe-40b3-aba3-3dc1c8c5ab12}, !- Handle
  {fcceb764-9e1c-4002-9e16-5b51e1ab76b6}, !- Name
  ,                                       !- Source Object
  11,                                     !- Outlet Port
  {e7af7af2-c8af-4f78-b78d-eb94aaff174f}, !- Target Object
  2;                                      !- Inlet Port

OS:PortList,
  {8d516e34-4561-4b2c-86c2-cf40da839855}, !- Handle
  {206024b8-5037-4260-b7ea-07af828a11bf}, !- Name
  ;                                       !- HVAC Component

OS:PortList,
  {6589b330-7e26-4099-a513-0c2009141e34}, !- Handle
  {2f3f3879-b252-47c2-a1ae-c8317cc6be7e}, !- Name
  ;                                       !- HVAC Component

OS:PortList,
  {18216bc6-d73e-4458-a3d7-10eedf253c80}, !- Handle
  {39521507-f698-46c7-b4e1-e041fe932c88}, !- Name
  ;                                       !- HVAC Component

OS:Node,
  {c283bef1-5309-4be6-a45a-008cb62c748b}, !- Handle
  Node 11,                                !- Name
  {6e8d6124-0961-48c0-9e31-53c1a59238da}, !- Inlet Port
  ;                                       !- Outlet Port

OS:Connection,
  {6e8d6124-0961-48c0-9e31-53c1a59238da}, !- Handle
  {4b43cba3-be8b-40c8-9353-5380fb1cc44e}, !- Name
  ,                                       !- Source Object
  11,                                     !- Outlet Port
  {c283bef1-5309-4be6-a45a-008cb62c748b}, !- Target Object
  2;                                      !- Inlet Port

OS:PortList,
  {2d914d0a-e685-4223-9b4c-6e619287c64b}, !- Handle
  {797e9468-14d6-40f5-ab1d-e9f38a6cb058}, !- Name
  ;                                       !- HVAC Component

OS:PortList,
  {57bb0c90-19e7-45b2-8dce-6715291fb14e}, !- Handle
  {c295852c-6088-4a88-841e-f3738cd711ad}, !- Name
  ;                                       !- HVAC Component

OS:PortList,
  {2b6f4329-9f5e-435d-9b28-ba90d4e05449}, !- Handle
  {ff302a0f-b77b-45f3-90ab-37f685424d92}, !- Name
  ;                                       !- HVAC Component

OS:Node,
  {5952d639-10a2-4fa2-8f7a-bd05a03586d4}, !- Handle
  Node 12,                                !- Name
  {b2e0c916-d942-47cb-9b14-9bbb7638bf4e}, !- Inlet Port
  ;                                       !- Outlet Port

OS:Connection,
  {b2e0c916-d942-47cb-9b14-9bbb7638bf4e}, !- Handle
  {89a5e3bd-734a-44d2-a6dc-e39671d5c198}, !- Name
  ,                                       !- Source Object
  11,                                     !- Outlet Port
  {5952d639-10a2-4fa2-8f7a-bd05a03586d4}, !- Target Object
  2;                                      !- Inlet Port

OS:PortList,
  {cce5d616-5e96-43f0-af57-e2eeab156065}, !- Handle
  {485a1933-9d78-49b5-900b-f2354e877f38}, !- Name
  ;                                       !- HVAC Component

OS:PortList,
  {cae7d57c-d16a-4b07-bfe1-732263bc862d}, !- Handle
  {61c4044c-d508-48aa-93a0-e6a626748a76}, !- Name
  ;                                       !- HVAC Component

OS:PortList,
  {6caea034-2d77-49f8-bcdd-f0b58d58066b}, !- Handle
  {cceb1d1e-d915-4f3d-a1c8-0ecc9c41b7db}, !- Name
  ;                                       !- HVAC Component

OS:Node,
  {d1af5a4e-e145-4ad7-9b24-7cbbf7ab9e00}, !- Handle
  Node 13,                                !- Name
  {a1841dda-10d6-4a25-97fe-4ed381d8f8ff}, !- Inlet Port
  ;                                       !- Outlet Port

OS:Connection,
  {a1841dda-10d6-4a25-97fe-4ed381d8f8ff}, !- Handle
  {1fa4204e-8b2e-4f29-bb4d-a37f7e0c9e02}, !- Name
  ,                                       !- Source Object
  11,                                     !- Outlet Port
  {d1af5a4e-e145-4ad7-9b24-7cbbf7ab9e00}, !- Target Object
  2;                                      !- Inlet Port

OS:PortList,
  {251f8c5d-bf36-4859-8df1-955de0d35cd2}, !- Handle
  {568b163c-2c31-4542-98aa-7d4d223a87a2}, !- Name
  ;                                       !- HVAC Component

OS:PortList,
  {aa7fbc88-416d-47de-8c27-9483ffec906b}, !- Handle
  {8023ee8b-0bd7-4fd6-b52a-7f1f6a2763f9}, !- Name
  ;                                       !- HVAC Component

OS:PortList,
  {d0f783c3-afdc-4137-b208-7a22a6a4b38d}, !- Handle
  {04a886a4-d9cc-42a1-aaf3-e40c6da70495}, !- Name
  ;                                       !- HVAC Component

OS:Node,
  {fa511078-fc0b-4846-9b25-99d11a3cf753}, !- Handle
  Node 14,                                !- Name
  {c6a52bf8-4888-45b0-a5e4-459fdd813cbf}, !- Inlet Port
  ;                                       !- Outlet Port

OS:Connection,
  {c6a52bf8-4888-45b0-a5e4-459fdd813cbf}, !- Handle
  {15e643a0-2b7f-4d26-a62a-e961dff89a8f}, !- Name
  ,                                       !- Source Object
  11,                                     !- Outlet Port
  {fa511078-fc0b-4846-9b25-99d11a3cf753}, !- Target Object
  2;                                      !- Inlet Port

OS:PortList,
  {b6c4a4c5-c56f-4817-8a96-eff9cec8e496}, !- Handle
  {3fb8ef52-e621-485e-b6e7-2ebe8ff4ef31}, !- Name
  ;                                       !- HVAC Component

OS:PortList,
  {751e2b67-e679-4a86-84ab-1bf09877850e}, !- Handle
  {76ebf9db-e857-4d54-9796-0905e1fbf6b4}, !- Name
  ;                                       !- HVAC Component

OS:PortList,
  {c7f1c79b-678f-478b-8460-7e037e099b1e}, !- Handle
  {33b3119c-695d-494e-acd9-79d85fa6a8cf}, !- Name
  ;                                       !- HVAC Component

OS:Node,
  {17725efc-d1d5-4b78-93d0-e76b03b1335a}, !- Handle
  Node 15,                                !- Name
  {920704f6-a2da-4962-af04-fc9b5702c9d3}, !- Inlet Port
  ;                                       !- Outlet Port

OS:Connection,
  {920704f6-a2da-4962-af04-fc9b5702c9d3}, !- Handle
  {eb03de34-7122-4583-93dc-f26cc91e70c5}, !- Name
  ,                                       !- Source Object
  11,                                     !- Outlet Port
  {17725efc-d1d5-4b78-93d0-e76b03b1335a}, !- Target Object
  2;                                      !- Inlet Port

OS:PortList,
  {ff2faf62-78aa-499e-b924-694efa82e93e}, !- Handle
  {bd6c7ee0-9d72-4da8-a1d1-5c66d4e77863}, !- Name
  ;                                       !- HVAC Component

OS:PortList,
  {d765e42b-947e-4610-8f3e-5948d782f1ed}, !- Handle
  {78b5d92f-1f7a-40aa-82d0-bcaa2f5e1393}, !- Name
  ;                                       !- HVAC Component

OS:PortList,
  {7ee7998a-df90-4624-a960-ee57a04555ce}, !- Handle
  {954547e5-2a04-4eff-98c2-f09057182cff}, !- Name
  ;                                       !- HVAC Component

OS:Node,
  {7bfa5988-471a-4704-aca6-2bf19cbf6c92}, !- Handle
  Node 16,                                !- Name
  {407e26af-a000-459c-8eac-9a2af774bb7a}, !- Inlet Port
  ;                                       !- Outlet Port

OS:Connection,
  {407e26af-a000-459c-8eac-9a2af774bb7a}, !- Handle
  {2985b715-a37d-4aef-8918-b98bc8872e75}, !- Name
  ,                                       !- Source Object
  11,                                     !- Outlet Port
  {7bfa5988-471a-4704-aca6-2bf19cbf6c92}, !- Target Object
  2;                                      !- Inlet Port

OS:PortList,
  {59c84ae8-2cb3-47d3-9a4b-d465d08af8f7}, !- Handle
  {6390fe20-88ae-4127-b9b0-1a1755fbba5f}, !- Name
  ;                                       !- HVAC Component

OS:PortList,
  {bd9819fd-5856-475d-ac18-4d5931a1a020}, !- Handle
  {71f01045-6887-4c51-b806-227721be08d2}, !- Name
  ;                                       !- HVAC Component

OS:PortList,
  {a40cc803-40b1-4d8c-8be7-b139a344cf13}, !- Handle
  {4e881602-7e51-4755-99be-13ab5e2f06de}, !- Name
  ;                                       !- HVAC Component

OS:Node,
  {5b371e88-60cb-492d-a16f-a5ca976ea676}, !- Handle
  Node 17,                                !- Name
  {13a42039-72c1-4b9e-9579-5410df7b20cc}, !- Inlet Port
  ;                                       !- Outlet Port

OS:Connection,
  {13a42039-72c1-4b9e-9579-5410df7b20cc}, !- Handle
  {8f7fdb57-6e5c-42d9-95a9-50860eab60b7}, !- Name
  ,                                       !- Source Object
  11,                                     !- Outlet Port
  {5b371e88-60cb-492d-a16f-a5ca976ea676}, !- Target Object
  2;                                      !- Inlet Port

OS:PortList,
  {202ba1ec-f0e9-4037-92a5-788245959fb4}, !- Handle
  {e3ff9251-43fb-4b63-a794-a5863291d461}, !- Name
  ;                                       !- HVAC Component

OS:PortList,
  {5830a95a-0aca-4e42-9cb9-a4e45369ae91}, !- Handle
  {b1d5b5ef-0f74-4463-9283-d82bf88935d3}, !- Name
  ;                                       !- HVAC Component

OS:PortList,
  {f562dbeb-2210-41aa-8307-d32768bc2a79}, !- Handle
  {b4696b4e-3845-412d-871c-696001f514e4}, !- Name
  ;                                       !- HVAC Component

OS:Node,
  {91c1a237-d66d-421a-9e82-92a843d4bfd4}, !- Handle
  Node 18,                                !- Name
  {f6a20690-477c-425b-b142-8f7663330c97}, !- Inlet Port
  ;                                       !- Outlet Port

OS:Connection,
  {f6a20690-477c-425b-b142-8f7663330c97}, !- Handle
  {9e6c1b82-b8b5-41b1-b73e-0692aa451df4}, !- Name
  ,                                       !- Source Object
  11,                                     !- Outlet Port